version 2
run Sim1drone1sensor-0-20210527-00:03:45-12868
attr configname Sim1drone1sensor
attr datetime 20210527-00:03:45
attr experiment Sim1drone1sensor
attr inifile mobilityDrones-omnetpp.ini
attr iterationvars ""
attr iterationvarsf ""
attr measurement ""
attr network mobilityDrones
attr processid 12868
attr repetition 0
attr replication #0
attr resultdir results
attr runnumber 0
attr seedset 0
param *.numUAVs 1
param *.drones[*].app[0].destAddresses "\"sensor1\""
param *.sensor*.app[0].destAddresses "\"drones[0]\""
param *.sensor1.mobility.initialX 450m
param *.sensor1.mobility.initialY 450m
param *.sensor1.mobility.initialZ 0m
param *.visualizer.osgVisualizer.typename "\"IntegratedOsgVisualizer\""
param *.visualizer.osgVisualizer.sceneVisualizer.typename "\"SceneOsgEarthVisualizer\""
param *.visualizer.osgVisualizer.sceneVisualizer.mapFile "\"map.earth\""
param *.visualizer.osgVisualizer.sceneVisualizer.sceneImageSize 10000m
param *.visualizer.osgVisualizer.sceneVisualizer.axisLength 500m
param *.visualizer.osgVisualizer.sceneVisualizer.sceneMinX -200m
param *.visualizer.osgVisualizer.sceneVisualizer.sceneMinY -200m
param *.visualizer.osgVisualizer.sceneVisualizer.sceneMinZ 0m
param *.visualizer.osgVisualizer.sceneVisualizer.sceneMaxX 5000m
param *.visualizer.osgVisualizer.sceneVisualizer.sceneMaxY 5000m
param *.visualizer.osgVisualizer.sceneVisualizer.sceneMaxZ 5000m
param *.visualizer.osgVisualizer.networkNodeVisualizer.displayModuleName true
param *.visualizer.*.mobilityVisualizer.displayMobility true
param *.visualizer.*.mobilityVisualizer.displayPositions true
param *.visualizer.*.mobilityVisualizer.displayOrientations true
param *.visualizer.*.mobilityVisualizer.displayVelocities true
param *.visualizer.*.mobilityVisualizer.displayMovementTrails true
param *.visualizer.*.mobilityVisualizer.animationSpeed 10
param *.visualizer.mediumVisualizer.displaySignals true
param **.constraintAreaMinX -500m
param **.constraintAreaMinY -500m
param **.constraintAreaMinZ -500m
param **.constraintAreaMaxX 5000m
param **.constraintAreaMaxY 5000m
param **.constraintAreaMaxZ 5000m
param *.drones*.wlan[0].radio.displayCommunicationRange true
param *.coordinateSystem.sceneLongitude -43.22260deg
param *.coordinateSystem.sceneLatitude -22.97556deg
param *.coordinateSystem.sceneHeading 90deg
param *.environment.ground.typename "\"FlatGround\""
param *.drones[*].osgModel "\"3d/drone.ive.100.scale.0,0,90.rot\""
param *.drones[*].mobility.typename "\"DroneMobility\""
param *.drones[*].mobility.coordinateSystemModule "\"coordinateSystem\""
param *.drones[*].mobility.waypointFile "\"geoJockeyPath.wpl\""
param *.drones[*].mobility.climbAngle 30deg
param *.drones[*].mobility.waypointProximity 5m
param **.mobility.initFromDisplayString false
param *.drones[*].mobility.speed uniform(10mps,20mps)
param *.sensor.mobility.typename "\"StationaryMobility\""
param *.sensor*.numApps 2
param *.sensor*.app[0].typename "\"UdpBasicAppMobileSensorNode\""
param *.sensor*.app[0].destPort 1000
param *.sensor*.app[0].sendInterval 0.1s
param *.sensor*.app[0].startTime 1s
param *.sensor*.app[0].messageLength 1454Byte
param *.sensor*.app[0].packetName "\"SENSOR-DEFAULT-PAYLOAD\""
param *.sensor*.app[1].typename "\"UdpSinkMobileSensorNode\""
param *.sensor*.app[1].localPort 1000

vector 0 mobilityDrones.drones[0].wlan[0].radio radioMode:vector ETV
attr interpolationmode sample-hold
attr source radioModeChanged
attr title "Radio mode, vector"
vector 1 mobilityDrones.drones[0].wlan[0].radio radioChannel:vector ETV
attr interpolationmode sample-hold
attr source radioChannelChanged
attr title "Radio channel, vector"
vector 2 mobilityDrones.sensor1.wlan[0].radio radioMode:vector ETV
attr interpolationmode sample-hold
attr source radioModeChanged
attr title "Radio mode, vector"
vector 3 mobilityDrones.sensor1.wlan[0].radio radioChannel:vector ETV
attr interpolationmode sample-hold
attr source radioChannelChanged
attr title "Radio channel, vector"
vector 4 mobilityDrones.sensor2.wlan[0].radio radioMode:vector ETV
attr interpolationmode sample-hold
attr source radioModeChanged
attr title "Radio mode, vector"
vector 5 mobilityDrones.sensor2.wlan[0].radio radioChannel:vector ETV
attr interpolationmode sample-hold
attr source radioChannelChanged
attr title "Radio channel, vector"
vector 6 mobilityDrones.sensor3.wlan[0].radio radioMode:vector ETV
attr interpolationmode sample-hold
attr source radioModeChanged
attr title "Radio mode, vector"
vector 7 mobilityDrones.sensor3.wlan[0].radio radioChannel:vector ETV
attr interpolationmode sample-hold
attr source radioChannelChanged
attr title "Radio channel, vector"
vector 8 mobilityDrones.drones[0].wlan[0].radio receptionState:vector ETV
attr interpolationmode sample-hold
attr source receptionStateChanged
attr title "Radio reception state, vector"
vector 9 mobilityDrones.sensor1.wlan[0].radio receptionState:vector ETV
attr interpolationmode sample-hold
attr source receptionStateChanged
attr title "Radio reception state, vector"
vector 10 mobilityDrones.sensor2.wlan[0].radio receptionState:vector ETV
attr interpolationmode sample-hold
attr source receptionStateChanged
attr title "Radio reception state, vector"
vector 11 mobilityDrones.sensor3.wlan[0].radio receptionState:vector ETV
attr interpolationmode sample-hold
attr source receptionStateChanged
attr title "Radio reception state, vector"
vector 12 mobilityDrones.drones[0].wlan[0].mac.dcf.recoveryProcedure contentionWindowChanged:vector ETV
attr interpolationmode sample-hold
attr title "contention window, vector"
vector 13 mobilityDrones.sensor1.wlan[0].mac.dcf.recoveryProcedure contentionWindowChanged:vector ETV
attr interpolationmode sample-hold
attr title "contention window, vector"
vector 14 mobilityDrones.sensor2.wlan[0].mac.dcf.recoveryProcedure contentionWindowChanged:vector ETV
attr interpolationmode sample-hold
attr title "contention window, vector"
vector 15 mobilityDrones.sensor3.wlan[0].mac.dcf.recoveryProcedure contentionWindowChanged:vector ETV
attr interpolationmode sample-hold
attr title "contention window, vector"
0	0	0	0
0	0	0	0
0	0	0	2
1	0	0	0
2	0	0	0
2	0	0	0
2	0	0	2
3	0	0	0
4	0	0	0
4	0	0	0
4	0	0	2
5	0	0	0
6	0	0	0
6	0	0	0
6	0	0	2
7	0	0	0
8	0	0	1
9	0	0	1
10	0	0	1
11	0	0	1
12	0	0	31
13	0	0	31
14	0	0	31
15	0	0	31
vector 16 mobilityDrones.sensor1.app[0] throughput:vector ETV
attr source throughput(packetReceived)
attr title "throughput, vector"
attr unit bps
vector 17 mobilityDrones.sensor1.app[1] throughput:vector ETV
attr source throughput(packetReceived)
attr title "throughput, vector"
attr unit bps
vector 18 mobilityDrones.sensor2.app[0] throughput:vector ETV
attr source throughput(packetReceived)
attr title "throughput, vector"
attr unit bps
vector 19 mobilityDrones.sensor2.app[1] throughput:vector ETV
attr source throughput(packetReceived)
attr title "throughput, vector"
attr unit bps
vector 20 mobilityDrones.sensor3.app[0] throughput:vector ETV
attr source throughput(packetReceived)
attr title "throughput, vector"
attr unit bps
vector 21 mobilityDrones.sensor3.app[1] throughput:vector ETV
attr source throughput(packetReceived)
attr title "throughput, vector"
attr unit bps
16	23166	0.1	0
16	23166	0.2	0
16	23166	0.3	0
16	23166	0.4	0
16	23166	0.5	0
16	23166	0.6	0
16	23166	0.7	0
16	23166	0.8	0
16	23166	0.9	0
16	23166	1	0
16	23166	1.1	0
16	23166	1.2	0
16	23166	1.3	0
16	23166	1.4	0
16	23166	1.5	0
16	23166	1.6	0
16	23166	1.7	0
16	23166	1.8	0
16	23166	1.9	0
16	23166	2	0
16	23166	2.1	0
16	23166	2.2	0
16	23166	2.3	0
16	23166	2.4	0
16	23166	2.5	0
16	23166	2.6	0
16	23166	2.7	0
16	23166	2.8	0
16	23166	2.9	0
16	23166	3	0
16	23166	3.1	0
16	23166	3.2	0
16	23166	3.3	0
16	23166	3.4	0
16	23166	3.5	0
16	23166	3.6	0
16	23166	3.7	0
16	23166	3.8	0
16	23166	3.9	0
16	23166	4	0
16	23166	4.1	0
16	23166	4.2	0
16	23166	4.3	0
16	23166	4.4	0
16	23166	4.5	0
16	23166	4.6	0
16	23166	4.7	0
16	23166	4.8	0
16	23166	4.9	0
16	23166	5	0
16	23166	5.1	0
16	23166	5.2	0
16	23166	5.3	0
16	23166	5.4	0
16	23166	5.5	0
16	23166	5.6	0
16	23166	5.7	0
16	23166	5.8	0
16	23166	5.9	0
16	23166	6	0
16	23166	6.1	0
16	23166	6.2	0
16	23166	6.3	0
16	23166	6.4	0
16	23166	6.5	0
16	23166	6.6	0
16	23166	6.7	0
16	23166	6.8	0
16	23166	6.9	0
16	23166	7	0
16	23166	7.1	0
16	23166	7.2	0
16	23166	7.3	0
16	23166	7.4	0
16	23166	7.5	0
16	23166	7.6	0
16	23166	7.7	0
16	23166	7.8	0
16	23166	7.9	0
16	23166	8	0
16	23166	8.1	0
16	23166	8.2	0
16	23166	8.3	0
16	23166	8.4	0
16	23166	8.5	0
16	23166	8.6	0
16	23166	8.7	0
16	23166	8.8	0
16	23166	8.9	0
16	23166	9	0
16	23166	9.1	0
16	23166	9.2	0
16	23166	9.3	0
16	23166	9.4	0
16	23166	9.5	0
16	23166	9.6	0
16	23166	9.7	0
16	23166	9.8	0
16	23166	9.9	0
16	23166	10	0
16	23166	10.1	0
16	23166	10.2	0
16	23166	10.3	0
16	23166	10.4	0
16	23166	10.5	0
16	23166	10.6	0
16	23166	10.7	0
16	23166	10.8	0
16	23166	10.9	0
16	23166	11	0
16	23166	11.1	0
16	23166	11.2	0
16	23166	11.3	0
16	23166	11.4	0
16	23166	11.5	0
16	23166	11.6	0
16	23166	11.7	0
16	23166	11.8	0
16	23166	11.9	0
16	23166	12	0
16	23166	12.1	0
16	23166	12.2	0
16	23166	12.3	0
16	23166	12.4	0
16	23166	12.5	0
16	23166	12.6	0
16	23166	12.7	0
16	23166	12.8	0
16	23166	12.9	0
16	23166	13	0
16	23166	13.1	0
16	23166	13.2	0
16	23166	13.3	0
16	23166	13.4	0
16	23166	13.5	0
16	23166	13.6	0
16	23166	13.7	0
16	23166	13.8	0
16	23166	13.9	0
16	23166	14	0
16	23166	14.1	0
16	23166	14.2	0
16	23166	14.3	0
16	23166	14.4	0
16	23166	14.5	0
16	23166	14.6	0
16	23166	14.7	0
16	23166	14.8	0
16	23166	14.9	0
16	23166	15	0
16	23166	15.1	0
16	23166	15.2	0
16	23166	15.3	0
16	23166	15.4	0
16	23166	15.5	0
16	23166	15.6	0
16	23166	15.7	0
16	23166	15.8	0
16	23166	15.9	0
16	23166	16	0
16	23166	16.1	0
16	23166	16.2	0
16	23166	16.3	0
16	23166	16.4	0
16	23166	16.5	0
16	23166	16.6	0
16	23166	16.7	0
16	23166	16.8	0
16	23166	16.9	0
16	23166	17	0
16	23166	17.1	0
16	23166	17.2	0
16	23166	17.3	0
16	23166	17.4	0
16	23166	17.5	0
16	23166	17.6	0
16	23166	17.7	0
16	23166	17.8	0
16	23166	17.9	0
16	23166	18	0
16	23166	18.1	0
16	23166	18.2	0
16	23166	18.3	0
16	23166	18.4	0
16	23166	18.5	0
16	23166	18.6	0
16	23166	18.7	0
16	23166	18.8	0
16	23166	18.9	0
16	23166	19	0
16	23166	19.1	0
16	23166	19.2	0
16	23166	19.3	0
16	23166	19.4	0
16	23166	19.5	0
16	23166	19.6	0
16	23166	19.7	0
16	23166	19.8	0
16	23166	19.9	0
16	23166	20	0
16	23166	20.1	0
16	23166	20.2	0
16	23166	20.3	0
16	23166	20.4	0
16	23166	20.5	0
16	23166	20.6	0
16	23166	20.7	0
16	23166	20.8	0
16	23166	20.9	0
16	23166	21	0
16	23166	21.1	0
16	23166	21.2	0
16	23166	21.3	0
16	23166	21.4	0
16	23166	21.5	0
16	23166	21.6	0
16	23166	21.7	0
16	23166	21.8	0
16	23166	21.9	0
16	23166	22	0
16	23166	22.1	0
16	23166	22.2	0
16	23166	22.3	0
16	23166	22.4	0
16	23166	22.5	0
16	23166	22.6	0
16	23166	22.7	0
16	23166	22.8	0
16	23166	22.9	0
16	23166	23	0
16	23166	23.1	0
16	23166	23.2	0
16	23166	23.3	0
16	23166	23.4	0
16	23166	23.5	0
16	23166	23.6	0
16	23166	23.7	0
16	23166	23.8	0
16	23166	23.9	0
16	23166	24	0
16	23166	24.1	0
16	23166	24.2	0
16	23166	24.3	0
16	23166	24.4	0
16	23166	24.5	0
16	23166	24.6	0
16	23166	24.7	0
16	23166	24.8	0
16	23166	24.9	0
16	23166	25	0
16	23166	25.1	0
16	23166	25.2	0
16	23166	25.3	0
16	23166	25.4	0
16	23166	25.5	0
16	23166	25.6	0
16	23166	25.7	0
16	23166	25.8	0
16	23166	25.9	0
16	23166	26	0
16	23166	26.1	0
16	23166	26.2	0
16	23166	26.3	0
16	23166	26.4	0
16	23166	26.5	0
16	23166	26.6	0
16	23166	26.7	0
16	23166	26.8	0
16	23166	26.9	0
16	23166	27	0
16	23166	27.1	0
16	23166	27.2	0
16	23166	27.3	0
16	23166	27.4	0
16	23166	27.5	0
16	23166	27.6	0
16	23166	27.7	0
16	23166	27.8	0
16	23166	27.9	0
16	23166	28	0
16	23166	28.1	0
16	23166	28.2	0
16	23166	28.3	0
16	23166	28.4	0
16	23166	28.5	0
16	23166	28.6	0
16	23166	28.7	0
16	23166	28.8	0
16	23166	28.9	0
16	23166	29	0
16	23166	29.1	0
16	23166	29.2	0
16	23166	29.3	0
16	23166	29.4	0
16	23166	29.5	0
16	23166	29.6	0
16	23166	29.7	0
16	23166	29.8	0
16	23166	29.9	0
16	23166	30	0
16	23166	30.1	0
16	23166	30.2	0
16	23166	30.3	0
16	23166	30.4	0
16	23166	30.5	0
16	23166	30.6	0
16	23166	30.7	0
16	23166	30.8	0
16	23166	30.9	0
16	23166	31	0
16	23166	31.1	0
16	23166	31.2	0
16	23166	31.3	0
16	23166	31.4	0
16	23166	31.5	0
16	23166	31.6	0
16	23166	31.7	0
16	23166	31.8	0
16	23166	31.9	0
16	23166	32	0
16	23166	32.1	0
16	23166	32.2	0
16	23166	32.3	0
16	23166	32.4	0
16	23166	32.5	0
16	23166	32.6	0
16	23166	32.7	0
16	23166	32.8	0
16	23166	32.9	0
16	23166	33	0
16	23166	33.1	0
16	23166	33.2	0
16	23166	33.3	0
16	23166	33.4	0
16	23166	33.5	0
16	23166	33.6	0
16	23166	33.7	0
16	23166	33.8	0
16	23166	33.9	0
16	23166	34	0
16	23166	34.1	0
16	23166	34.2	0
16	23166	34.3	0
16	23166	34.4	0
16	23166	34.5	0
16	23166	34.6	0
16	23166	34.7	0
16	23166	34.8	0
16	23166	34.9	0
16	23166	35	0
16	23166	35.1	0
16	23166	35.2	0
16	23166	35.3	0
16	23166	35.4	0
16	23166	35.5	0
16	23166	35.6	0
16	23166	35.7	0
16	23166	35.8	0
16	23166	35.9	0
16	23166	36	0
16	23166	36.1	0
16	23166	36.2	0
16	23166	36.3	0
16	23166	36.4	0
16	23166	36.5	0
16	23166	36.6	0
16	23166	36.7	0
16	23166	36.8	0
16	23166	36.9	0
16	23166	37	0
16	23166	37.1	0
16	23166	37.2	0
16	23166	37.3	0
16	23166	37.4	0
16	23166	37.5	0
16	23166	37.6	0
16	23166	37.7	0
16	23166	37.8	0
16	23166	37.9	0
16	23166	38	0
16	23166	38.1	0
16	23166	38.2	0
16	23166	38.3	0
16	23166	38.4	0
16	23166	38.5	0
16	23166	38.6	0
16	23166	38.7	0
16	23166	38.8	0
16	23166	38.9	0
16	23166	39	0
16	23166	39.1	0
16	23166	39.2	0
16	23166	39.3	0
16	23166	39.4	0
16	23166	39.5	0
16	23166	39.6	0
16	23166	39.7	0
16	23166	39.8	0
16	23166	39.9	0
16	23166	40	0
16	23166	40.1	0
16	23166	40.2	0
16	23166	40.3	0
16	23166	40.4	0
16	23166	40.5	0
16	23166	40.6	0
16	23166	40.7	0
16	23166	40.8	0
16	23166	40.9	0
16	23166	41	0
16	23166	41.1	0
16	23166	41.2	0
16	23166	41.3	0
16	23166	41.4	0
16	23166	41.5	0
16	23166	41.6	0
16	23166	41.7	0
16	23166	41.8	0
16	23166	41.9	0
16	23166	42	0
16	23166	42.1	0
16	23166	42.2	0
16	23166	42.3	0
16	23166	42.4	0
16	23166	42.5	0
16	23166	42.6	0
16	23166	42.7	0
16	23166	42.8	0
16	23166	42.9	0
16	23166	43	0
16	23166	43.1	0
16	23166	43.2	0
16	23166	43.3	0
16	23166	43.4	0
16	23166	43.5	0
16	23166	43.6	0
16	23166	43.7	0
16	23166	43.8	0
16	23166	43.9	0
16	23166	44	0
16	23166	44.1	0
16	23166	44.2	0
16	23166	44.3	0
16	23166	44.4	0
16	23166	44.5	0
16	23166	44.6	0
16	23166	44.7	0
16	23166	44.8	0
16	23166	44.9	0
16	23166	45	0
16	23166	45.1	0
16	23166	45.2	0
16	23166	45.3	0
16	23166	45.4	0
16	23166	45.5	0
16	23166	45.6	0
16	23166	45.7	0
16	23166	45.8	0
16	23166	45.9	0
16	23166	46	0
16	23166	46.1	0
16	23166	46.2	0
16	23166	46.3	0
16	23166	46.4	0
16	23166	46.5	0
16	23166	46.6	0
16	23166	46.7	0
16	23166	46.8	0
16	23166	46.9	0
16	23166	47	0
16	23166	47.1	0
16	23166	47.2	0
16	23166	47.3	0
16	23166	47.4	0
16	23166	47.5	0
16	23166	47.6	0
16	23166	47.7	0
16	23166	47.8	0
16	23166	47.9	0
16	23166	48	0
16	23166	48.1	0
16	23166	48.2	0
16	23166	48.3	0
16	23166	48.4	0
16	23166	48.5	0
16	23166	48.6	0
16	23166	48.7	0
16	23166	48.8	0
16	23166	48.9	0
16	23166	49	0
16	23166	49.1	0
16	23166	49.2	0
16	23166	49.3	0
16	23166	49.4	0
16	23166	49.5	0
16	23166	49.6	0
16	23166	49.7	0
16	23166	49.8	0
16	23166	49.9	0
16	23166	50	0
16	23166	50.1	0
16	23166	50.2	0
16	23166	50.3	0
16	23166	50.4	0
16	23166	50.5	0
16	23166	50.6	0
16	23166	50.7	0
16	23166	50.8	0
16	23166	50.9	0
16	23166	51	0
16	23166	51.1	0
16	23166	51.2	0
16	23166	51.3	0
16	23166	51.4	0
16	23166	51.5	0
16	23166	51.6	0
16	23166	51.7	0
16	23166	51.8	0
16	23166	51.9	0
16	23166	52	0
16	23166	52.1	0
16	23166	52.2	0
16	23166	52.3	0
16	23166	52.4	0
16	23166	52.5	0
16	23166	52.6	0
16	23166	52.7	0
16	23166	52.8	0
16	23166	52.9	0
16	23166	53	0
16	23166	53.1	0
16	23166	53.2	0
16	23166	53.3	0
16	23166	53.4	0
16	23166	53.5	0
16	23166	53.6	0
16	23166	53.7	0
16	23166	53.8	0
16	23166	53.9	0
16	23166	54	0
16	23166	54.1	0
16	23166	54.2	0
16	23166	54.3	0
16	23166	54.4	0
16	23166	54.5	0
16	23166	54.6	0
16	23166	54.7	0
16	23166	54.8	0
16	23166	54.9	0
16	23166	55	0
16	23166	55.1	0
16	23166	55.2	0
16	23166	55.3	0
16	23166	55.4	0
16	23166	55.5	0
16	23166	55.6	0
16	23166	55.7	0
16	23166	55.8	0
16	23166	55.9	0
16	23166	56	0
16	23166	56.1	0
16	23166	56.2	0
16	23166	56.3	0
16	23166	56.4	0
16	23166	56.5	0
16	23166	56.6	0
16	23166	56.7	0
16	23166	56.8	0
16	23166	56.9	0
16	23166	57	0
16	23166	57.1	0
16	23166	57.2	0
16	23166	57.3	0
16	23166	57.4	0
16	23166	57.5	0
16	23166	57.6	0
16	23166	57.7	0
16	23166	57.8	0
16	23166	57.9	0
16	23166	58	0
16	23166	58.1	0
16	23166	58.2	0
16	23166	58.3	0
16	23166	58.4	0
16	23166	58.5	0
16	23166	58.6	0
16	23166	58.7	0
16	23166	58.8	0
16	23166	58.9	0
16	23166	59	0
16	23166	59.1	0
16	23166	59.2	0
16	23166	59.3	0
16	23166	59.4	0
16	23166	59.5	0
16	23166	59.6	0
16	23166	59.7	0
16	23166	59.8	0
16	23166	59.9	0
16	23166	60	0
16	23166	60.1	0
16	23166	60.2	0
16	23166	60.3	0
16	23166	60.4	0
16	23166	60.5	0
16	23166	60.6	0
16	23166	60.7	0
16	23166	60.8	0
16	23166	60.9	0
16	23166	61	0
16	23166	61.1	0
16	23166	61.2	0
16	23166	61.3	0
16	23166	61.4	0
16	23166	61.5	0
16	23166	61.6	0
16	23166	61.7	0
16	23166	61.8	0
16	23166	61.9	0
16	23166	62	0
16	23166	62.1	0
16	23166	62.2	0
16	23166	62.3	0
16	23166	62.4	0
16	23166	62.5	0
16	23166	62.6	0
16	23166	62.7	0
16	23166	62.8	0
16	23166	62.9	0
16	23166	63	0
16	23166	63.1	0
16	23166	63.2	0
16	23166	63.3	0
16	23166	63.4	0
16	23166	63.5	0
16	23166	63.6	0
16	23166	63.7	0
16	23166	63.8	0
16	23166	63.9	0
16	23166	64	0
16	23166	64.1	0
16	23166	64.2	0
16	23166	64.3	0
16	23166	64.4	0
16	23166	64.5	0
16	23166	64.6	0
16	23166	64.7	0
16	23166	64.8	0
16	23166	64.9	0
16	23166	65	0
16	23166	65.1	0
16	23166	65.2	0
16	23166	65.3	0
16	23166	65.4	0
16	23166	65.5	0
16	23166	65.6	0
16	23166	65.7	0
16	23166	65.8	0
16	23166	65.9	0
16	23166	66	0
16	23166	66.1	0
16	23166	66.2	0
16	23166	66.3	0
16	23166	66.4	0
16	23166	66.5	0
16	23166	66.6	0
16	23166	66.7	0
16	23166	66.8	0
16	23166	66.9	0
16	23166	67	0
16	23166	67.1	0
16	23166	67.2	0
16	23166	67.3	0
16	23166	67.4	0
16	23166	67.5	0
16	23166	67.6	0
16	23166	67.7	0
16	23166	67.8	0
16	23166	67.9	0
16	23166	68	0
16	23166	68.1	0
16	23166	68.2	0
16	23166	68.3	0
16	23166	68.4	0
16	23166	68.5	0
16	23166	68.6	0
16	23166	68.7	0
16	23166	68.8	0
16	23166	68.9	0
16	23166	69	0
16	23166	69.1	0
16	23166	69.2	0
16	23166	69.3	0
16	23166	69.4	0
16	23166	69.5	0
16	23166	69.6	0
16	23166	69.7	0
16	23166	69.8	0
16	23166	69.9	0
16	23166	70	0
16	23166	70.1	0
16	23166	70.2	0
16	23166	70.3	0
16	23166	70.4	0
16	23166	70.5	0
16	23166	70.6	0
16	23166	70.7	0
16	23166	70.8	0
16	23166	70.9	0
16	23166	71	0
16	23166	71.1	0
16	23166	71.2	0
16	23166	71.3	0
16	23166	71.4	0
16	23166	71.5	0
16	23166	71.6	0
16	23166	71.7	0
16	23166	71.8	0
16	23166	71.9	0
16	23166	72	0
16	23166	72.1	0
16	23166	72.2	0
16	23166	72.3	0
16	23166	72.4	0
16	23166	72.5	0
16	23166	72.6	0
16	23166	72.7	0
16	23166	72.8	0
16	23166	72.9	0
16	23166	73	0
16	23166	73.1	0
16	23166	73.2	0
16	23166	73.3	0
16	23166	73.4	0
16	23166	73.5	0
16	23166	73.6	0
16	23166	73.7	0
16	23166	73.8	0
16	23166	73.9	0
16	23166	74	0
16	23166	74.1	0
16	23166	74.2	0
16	23166	74.3	0
16	23166	74.4	0
16	23166	74.5	0
16	23166	74.6	0
16	23166	74.7	0
16	23166	74.8	0
16	23166	74.9	0
16	23166	75	0
16	23166	75.1	0
16	23166	75.2	0
16	23166	75.3	0
16	23166	75.4	0
16	23166	75.5	0
16	23166	75.6	0
16	23166	75.7	0
16	23166	75.8	0
16	23166	75.9	0
16	23166	76	0
16	23166	76.1	0
16	23166	76.2	0
16	23166	76.3	0
16	23166	76.4	0
16	23166	76.5	0
16	23166	76.6	0
16	23166	76.7	0
16	23166	76.8	0
16	23166	76.9	0
16	23166	77	0
16	23166	77.1	0
16	23166	77.2	0
16	23166	77.3	0
16	23166	77.4	0
16	23166	77.5	0
16	23166	77.6	0
16	23166	77.7	0
16	23166	77.8	0
16	23166	77.9	0
16	23166	78	0
16	23166	78.1	0
16	23166	78.2	0
16	23166	78.3	0
16	23166	78.4	0
16	23166	78.5	0
16	23166	78.6	0
16	23166	78.7	0
16	23166	78.8	0
16	23166	78.9	0
16	23166	79	0
16	23166	79.1	0
16	23166	79.2	0
16	23166	79.3	0
16	23166	79.4	0
16	23166	79.5	0
16	23166	79.6	0
16	23166	79.7	0
16	23166	79.8	0
16	23166	79.9	0
16	23166	80	0
16	23166	80.1	0
16	23166	80.2	0
16	23166	80.3	0
16	23166	80.4	0
16	23166	80.5	0
16	23166	80.6	0
16	23166	80.7	0
16	23166	80.8	0
16	23166	80.9	0
16	23166	81	0
16	23166	81.1	0
16	23166	81.2	0
16	23166	81.3	0
16	23166	81.4	0
16	23166	81.5	0
16	23166	81.6	0
16	23166	81.7	0
16	23166	81.8	0
16	23166	81.9	0
16	23166	82	0
16	23166	82.1	0
16	23166	82.2	0
16	23166	82.3	0
16	23166	82.4	0
16	23166	82.5	0
16	23166	82.6	0
16	23166	82.7	0
16	23166	82.8	0
16	23166	82.9	0
16	23166	83	0
16	23166	83.1	0
16	23166	83.2	0
16	23166	83.3	0
16	23166	83.4	0
16	23166	83.5	0
16	23166	83.6	0
16	23166	83.7	0
16	23166	83.8	0
16	23166	83.9	0
16	23166	84	0
16	23166	84.1	0
16	23166	84.2	0
16	23166	84.3	0
16	23166	84.4	0
16	23166	84.5	0
16	23166	84.6	0
16	23166	84.7	0
16	23166	84.8	0
16	23166	84.9	0
16	23166	85	0
16	23166	85.1	0
16	23166	85.2	0
16	23166	85.3	0
16	23166	85.4	0
16	23166	85.5	0
16	23166	85.6	0
16	23166	85.7	0
16	23166	85.8	0
16	23166	85.9	0
16	23166	86	0
16	23166	86.1	0
16	23166	86.2	0
16	23166	86.3	0
16	23166	86.4	0
16	23166	86.5	0
16	23166	86.6	0
16	23166	86.7	0
16	23166	86.8	0
16	23166	86.9	0
16	23166	87	0
16	23166	87.1	0
16	23166	87.2	0
16	23166	87.3	0
16	23166	87.4	0
16	23166	87.5	0
16	23166	87.6	0
16	23166	87.7	0
16	23166	87.8	0
16	23166	87.9	0
16	23166	88	0
16	23166	88.1	0
16	23166	88.2	0
16	23166	88.3	0
16	23166	88.4	0
16	23166	88.5	0
16	23166	88.6	0
16	23166	88.7	0
16	23166	88.8	0
16	23166	88.9	0
16	23166	89	0
16	23166	89.1	0
16	23166	89.2	0
16	23166	89.3	0
16	23166	89.4	0
16	23166	89.5	0
16	23166	89.6	0
16	23166	89.7	0
16	23166	89.8	0
16	23166	89.9	0
16	23166	90	0
16	23166	90.1	0
16	23166	90.2	0
16	23166	90.3	0
16	23166	90.4	0
16	23166	90.5	0
16	23166	90.6	0
16	23166	90.7	0
16	23166	90.8	0
16	23166	90.9	0
16	23166	91	0
16	23166	91.1	0
16	23166	91.2	0
16	23166	91.3	0
16	23166	91.4	0
16	23166	91.5	0
16	23166	91.6	0
16	23166	91.7	0
16	23166	91.8	0
16	23166	91.9	0
16	23166	92	0
16	23166	92.1	0
16	23166	92.2	0
16	23166	92.3	0
16	23166	92.4	0
16	23166	92.5	0
16	23166	92.6	0
16	23166	92.7	0
16	23166	92.8	0
16	23166	92.9	0
16	23166	93	0
16	23166	93.1	0
16	23166	93.2	0
16	23166	93.3	0
16	23166	93.4	0
16	23166	93.5	0
16	23166	93.6	0
16	23166	93.7	0
16	23166	93.8	0
16	23166	93.9	0
16	23166	94	0
16	23166	94.1	0
16	23166	94.2	0
16	23166	94.3	0
16	23166	94.4	0
16	23166	94.5	0
16	23166	94.6	0
16	23166	94.7	0
16	23166	94.8	0
16	23166	94.9	0
16	23166	95	0
16	23166	95.1	0
16	23166	95.2	0
16	23166	95.3	0
16	23166	95.4	0
16	23166	95.5	0
16	23166	95.6	0
16	23166	95.7	0
16	23166	95.8	0
16	23166	95.9	0
16	23166	96	0
16	23166	96.1	0
16	23166	96.2	0
16	23166	96.3	0
16	23166	96.4	0
16	23166	96.5	0
16	23166	96.6	0
16	23166	96.7	0
16	23166	96.8	0
16	23166	96.9	0
16	23166	97	0
16	23166	97.1	0
16	23166	97.2	0
16	23166	97.3	0
16	23166	97.4	0
16	23166	97.5	0
16	23166	97.6	0
16	23166	97.7	0
16	23166	97.8	0
16	23166	97.9	0
16	23166	98	0
16	23166	98.1	0
16	23166	98.2	0
16	23166	98.3	0
16	23166	98.4	0
16	23166	98.5	0
16	23166	98.6	0
16	23166	98.7	0
16	23166	98.8	0
16	23166	98.9	0
16	23166	99	0
16	23166	99.1	0
16	23166	99.2	0
16	23166	99.3	0
16	23166	99.4	0
16	23166	99.5	0
16	23166	99.6	0
16	23166	99.7	0
16	23166	99.8	0
16	23166	99.9	0
16	23166	100	0
16	23166	100.1	0
16	23166	100.2	0
16	23166	100.3	0
16	23166	100.4	0
16	23166	100.5	0
16	23166	100.6	0
16	23166	100.7	0
16	23166	100.8	0
16	23166	100.9	0
16	23166	101	0
16	23166	101.1	0
16	23166	101.2	0
16	23166	101.3	0
16	23166	101.4	0
16	23166	101.5	0
16	23166	101.6	0
16	23166	101.7	0
16	23166	101.8	0
16	23166	101.9	0
16	23166	102	0
16	23166	102.1	0
16	23166	102.2	0
16	23166	102.3	0
16	23166	102.4	0
16	23166	102.5	0
16	23166	102.6	0
16	23166	102.7	0
16	23166	102.8	0
16	23166	102.9	0
16	23166	103	0
16	23166	103.1	0
16	23166	103.2	0
16	23166	103.3	0
16	23166	103.4	0
16	23166	103.5	0
16	23166	103.6	0
16	23166	103.7	0
16	23166	103.8	0
16	23166	103.9	0
16	23166	104	0
16	23166	104.1	0
16	23166	104.2	0
16	23166	104.3	0
16	23166	104.4	0
16	23166	104.5	0
16	23166	104.6	0
16	23166	104.7	0
16	23166	104.8	0
16	23166	104.9	0
16	23166	105	0
16	23166	105.1	0
16	23166	105.2	0
16	23166	105.3	0
16	23166	105.4	0
16	23166	105.5	0
16	23166	105.6	0
16	23166	105.7	0
16	23166	105.8	0
16	23166	105.9	0
16	23166	106	0
16	23166	106.1	0
16	23166	106.2	0
16	23166	106.3	0
16	23166	106.4	0
16	23166	106.5	0
16	23166	106.6	0
16	23166	106.7	0
16	23166	106.8	0
16	23166	106.9	0
16	23166	107	0
16	23166	107.1	0
16	23166	107.2	0
16	23166	107.3	0
16	23166	107.4	0
16	23166	107.5	0
16	23166	107.6	0
16	23166	107.7	0
16	23166	107.8	0
16	23166	107.9	0
16	23166	108	0
16	23166	108.1	0
16	23166	108.2	0
16	23166	108.3	0
16	23166	108.4	0
16	23166	108.5	0
16	23166	108.6	0
16	23166	108.7	0
16	23166	108.8	0
16	23166	108.9	0
16	23166	109	0
16	23166	109.1	0
16	23166	109.2	0
16	23166	109.3	0
16	23166	109.4	0
16	23166	109.5	0
16	23166	109.6	0
16	23166	109.7	0
16	23166	109.8	0
16	23166	109.9	0
16	23166	110	0
16	23166	110.1	0
16	23166	110.2	0
16	23166	110.3	0
16	23166	110.4	0
16	23166	110.5	0
16	23166	110.6	0
16	23166	110.7	0
16	23166	110.8	0
16	23166	110.9	0
16	23166	111	0
16	23166	111.1	0
16	23166	111.2	0
16	23166	111.3	0
16	23166	111.4	0
16	23166	111.5	0
16	23166	111.6	0
16	23166	111.7	0
16	23166	111.8	0
16	23166	111.9	0
16	23166	112	0
16	23166	112.1	0
16	23166	112.2	0
16	23166	112.3	0
16	23166	112.4	0
16	23166	112.5	0
16	23166	112.6	0
16	23166	112.7	0
16	23166	112.8	0
16	23166	112.9	0
16	23166	113	0
16	23166	113.1	0
16	23166	113.2	0
16	23166	113.3	0
16	23166	113.4	0
16	23166	113.5	0
16	23166	113.6	0
16	23166	113.7	0
16	23166	113.8	0
16	23166	113.9	0
16	23166	114	0
16	23166	114.1	0
16	23166	114.2	0
16	23166	114.3	0
16	23166	114.4	0
16	23166	114.5	0
16	23166	114.6	0
16	23166	114.7	0
16	23166	114.8	0
16	23166	114.9	0
16	23166	115	0
16	23166	115.1	0
16	23166	115.2	0
16	23166	115.3	0
16	23166	115.4	0
16	23166	115.5	0
16	23166	115.6	0
16	23166	115.7	0
16	23166	115.8	0
16	23166	115.9	0
16	23166	116	0
16	23166	116.1	0
16	23166	116.2	0
16	23166	116.3	0
16	23166	116.4	0
16	23166	116.5	0
16	23166	116.6	0
16	23166	116.7	0
16	23166	116.8	0
16	23166	116.9	0
16	23166	117	0
16	23166	117.1	0
16	23166	117.2	0
16	23166	117.3	0
16	23166	117.4	0
16	23166	117.5	0
16	23166	117.6	0
16	23166	117.7	0
16	23166	117.8	0
16	23166	117.9	0
16	23166	118	0
16	23166	118.1	0
16	23166	118.2	0
16	23166	118.3	0
16	23166	118.4	0
16	23166	118.5	0
16	23166	118.6	0
16	23166	118.7	0
16	23166	118.8	0
16	23166	118.9	0
16	23166	119	0
16	23166	119.1	0
16	23166	119.2	0
16	23166	119.3	0
16	23166	119.4	0
16	23166	119.5	0
16	23166	119.6	0
16	23166	119.7	0
16	23166	119.8	0
16	23166	119.9	0
16	23166	120	0
16	23166	120.1	0
16	23166	120.2	0
16	23166	120.3	0
16	23166	120.4	0
16	23166	120.5	0
16	23166	120.6	0
16	23166	120.7	0
16	23166	120.8	0
16	23166	120.9	0
16	23166	121	0
16	23166	121.1	0
16	23166	121.2	0
16	23166	121.3	0
16	23166	121.4	0
16	23166	121.5	0
16	23166	121.6	0
16	23166	121.7	0
16	23166	121.8	0
16	23166	121.9	0
16	23166	122	0
16	23166	122.1	0
16	23166	122.2	0
16	23166	122.3	0
16	23166	122.4	0
16	23166	122.5	0
16	23166	122.6	0
16	23166	122.7	0
16	23166	122.8	0
16	23166	122.9	0
16	23166	123	0
16	23166	123.1	0
16	23166	123.2	0
16	23166	123.3	0
16	23166	123.4	0
16	23166	123.5	0
16	23166	123.6	0
16	23166	123.7	0
16	23166	123.8	0
16	23166	123.9	0
16	23166	124	0
16	23166	124.1	0
16	23166	124.2	0
16	23166	124.3	0
16	23166	124.4	0
16	23166	124.5	0
16	23166	124.6	0
16	23166	124.7	0
16	23166	124.8	0
16	23166	124.9	0
16	23166	125	0
16	23166	125.1	0
16	23166	125.2	0
16	23166	125.3	0
16	23166	125.4	0
16	23166	125.5	0
16	23166	125.6	0
16	23166	125.7	0
16	23166	125.8	0
16	23166	125.9	0
16	23166	126	0
16	23166	126.1	0
16	23166	126.2	0
16	23166	126.3	0
16	23166	126.4	0
16	23166	126.5	0
16	23166	126.6	0
16	23166	126.7	0
16	23166	126.8	0
16	23166	126.9	0
16	23166	127	0
16	23166	127.1	0
16	23166	127.2	0
16	23166	127.3	0
16	23166	127.4	0
16	23166	127.5	0
16	23166	127.6	0
16	23166	127.7	0
16	23166	127.8	0
16	23166	127.9	0
16	23166	128	0
16	23166	128.1	0
16	23166	128.2	0
16	23166	128.3	0
16	23166	128.4	0
16	23166	128.5	0
16	23166	128.6	0
16	23166	128.7	0
16	23166	128.8	0
16	23166	128.9	0
16	23166	129	0
16	23166	129.1	0
16	23166	129.2	0
16	23166	129.3	0
16	23166	129.4	0
16	23166	129.5	0
16	23166	129.6	0
16	23166	129.7	0
16	23166	129.8	0
16	23166	129.9	0
16	23166	130	0
16	23166	130.1	0
16	23166	130.2	0
16	23166	130.3	0
16	23166	130.4	0
16	23166	130.5	0
16	23166	130.6	0
16	23166	130.7	0
16	23166	130.8	0
16	23166	130.9	0
16	23166	131	0
16	23166	131.1	0
16	23166	131.2	0
16	23166	131.3	0
16	23166	131.4	0
16	23166	131.5	0
16	23166	131.6	0
16	23166	131.7	0
16	23166	131.8	0
16	23166	131.9	0
16	23166	132	0
16	23166	132.1	0
16	23166	132.2	0
16	23166	132.3	0
16	23166	132.4	0
16	23166	132.5	0
16	23166	132.6	0
16	23166	132.7	0
16	23166	132.8	0
16	23166	132.9	0
16	23166	133	0
16	23166	133.1	0
16	23166	133.2	0
16	23166	133.3	0
16	23166	133.4	0
16	23166	133.5	0
16	23166	133.6	0
16	23166	133.7	0
16	23166	133.8	0
16	23166	133.9	0
16	23166	134	0
16	23166	134.1	0
16	23166	134.2	0
16	23166	134.3	0
16	23166	134.4	0
16	23166	134.5	0
16	23166	134.6	0
16	23166	134.7	0
16	23166	134.8	0
16	23166	134.9	0
16	23166	135	0
16	23166	135.1	0
16	23166	135.2	0
16	23166	135.3	0
16	23166	135.4	0
16	23166	135.5	0
16	23166	135.6	0
16	23166	135.7	0
16	23166	135.8	0
16	23166	135.9	0
16	23166	136	0
16	23166	136.1	0
16	23166	136.2	0
16	23166	136.3	0
16	23166	136.4	0
16	23166	136.5	0
16	23166	136.6	0
16	23166	136.7	0
16	23166	136.8	0
16	23166	136.9	0
16	23166	137	0
16	23166	137.1	0
16	23166	137.2	0
16	23166	137.3	0
16	23166	137.4	0
16	23166	137.5	0
16	23166	137.6	0
16	23166	137.7	0
16	23166	137.8	0
16	23166	137.9	0
16	23166	138	0
16	23166	138.1	0
16	23166	138.2	0
16	23166	138.3	0
16	23166	138.4	0
16	23166	138.5	0
16	23166	138.6	0
16	23166	138.7	0
16	23166	138.8	0
16	23166	138.9	0
16	23166	139	0
16	23166	139.1	0
16	23166	139.2	0
16	23166	139.3	0
16	23166	139.4	0
16	23166	139.5	0
16	23166	139.6	0
16	23166	139.7	0
16	23166	139.8	0
16	23166	139.9	0
16	23166	140	0
16	23166	140.1	0
16	23166	140.2	0
16	23166	140.3	0
16	23166	140.4	0
16	23166	140.5	0
16	23166	140.6	0
16	23166	140.7	0
16	23166	140.8	0
16	23166	140.9	0
16	23166	141	0
16	23166	141.1	0
16	23166	141.2	0
16	23166	141.3	0
16	23166	141.4	0
16	23166	141.5	0
16	23166	141.6	0
16	23166	141.7	0
16	23166	141.8	0
16	23166	141.9	0
16	23166	142	0
16	23166	142.1	0
16	23166	142.2	0
16	23166	142.3	0
16	23166	142.4	0
16	23166	142.5	0
16	23166	142.6	0
16	23166	142.7	0
16	23166	142.8	0
16	23166	142.9	0
16	23166	143	0
16	23166	143.1	0
16	23166	143.2	0
16	23166	143.3	0
16	23166	143.4	0
16	23166	143.5	0
16	23166	143.6	0
16	23166	143.7	0
16	23166	143.8	0
16	23166	143.9	0
16	23166	144	0
16	23166	144.1	0
16	23166	144.2	0
16	23166	144.3	0
16	23166	144.4	0
16	23166	144.5	0
16	23166	144.6	0
16	23166	144.7	0
16	23166	144.8	0
16	23166	144.9	0
16	23166	145	0
16	23166	145.1	0
16	23166	145.2	0
16	23166	145.3	0
16	23166	145.4	0
16	23166	145.5	0
16	23166	145.6	0
16	23166	145.7	0
16	23166	145.8	0
16	23166	145.9	0
16	23166	146	0
16	23166	146.1	0
16	23166	146.2	0
16	23166	146.3	0
16	23166	146.4	0
16	23166	146.5	0
16	23166	146.6	0
16	23166	146.7	0
16	23166	146.8	0
16	23166	146.9	0
16	23166	147	0
16	23166	147.1	0
16	23166	147.2	0
16	23166	147.3	0
16	23166	147.4	0
16	23166	147.5	0
16	23166	147.6	0
16	23166	147.7	0
16	23166	147.8	0
16	23166	147.9	0
16	23166	148	0
16	23166	148.1	0
16	23166	148.2	0
16	23166	148.3	0
16	23166	148.4	0
16	23166	148.5	0
16	23166	148.6	0
16	23166	148.7	0
16	23166	148.8	0
16	23166	148.9	0
16	23166	149	0
16	23166	149.1	0
16	23166	149.2	0
16	23166	149.3	0
16	23166	149.4	0
16	23166	149.5	0
16	23166	149.6	0
16	23166	149.7	0
16	23166	149.8	0
16	23166	149.9	0
16	23166	150	0
16	23166	150.1	0
16	23166	150.2	0
16	23166	150.3	0
16	23166	150.4	0
16	23166	150.5	0
16	23166	150.6	0
16	23166	150.7	0
16	23166	150.8	0
16	23166	150.9	0
16	23166	151	0
16	23166	151.1	0
16	23166	151.2	0
16	23166	151.3	0
16	23166	151.4	0
16	23166	151.5	0
16	23166	151.6	0
16	23166	151.7	0
16	23166	151.8	0
16	23166	151.9	0
16	23166	152	0
16	23166	152.1	0
16	23166	152.2	0
16	23166	152.3	0
16	23166	152.4	0
16	23166	152.5	0
16	23166	152.6	0
16	23166	152.7	0
16	23166	152.8	0
16	23166	152.9	0
16	23166	153	0
16	23166	153.1	0
16	23166	153.2	0
16	23166	153.3	0
16	23166	153.4	0
16	23166	153.5	0
16	23166	153.6	0
16	23166	153.7	0
16	23166	153.8	0
16	23166	153.9	0
16	23166	154	0
16	23166	154.1	0
16	23166	154.2	0
16	23166	154.3	0
16	23166	154.4	0
16	23166	154.5	0
16	23166	154.6	0
16	23166	154.7	0
16	23166	154.8	0
16	23166	154.9	0
16	23166	155	0
16	23166	155.1	0
16	23166	155.2	0
16	23166	155.3	0
16	23166	155.4	0
16	23166	155.5	0
16	23166	155.6	0
16	23166	155.7	0
16	23166	155.8	0
16	23166	155.9	0
16	23166	156	0
16	23166	156.1	0
16	23166	156.2	0
16	23166	156.3	0
16	23166	156.4	0
16	23166	156.5	0
16	23166	156.6	0
16	23166	156.7	0
16	23166	156.8	0
16	23166	156.9	0
16	23166	157	0
16	23166	157.1	0
16	23166	157.2	0
16	23166	157.3	0
16	23166	157.4	0
16	23166	157.5	0
16	23166	157.6	0
16	23166	157.7	0
16	23166	157.8	0
16	23166	157.9	0
16	23166	158	0
16	23166	158.1	0
16	23166	158.2	0
16	23166	158.3	0
16	23166	158.4	0
16	23166	158.5	0
16	23166	158.6	0
16	23166	158.7	0
16	23166	158.8	0
16	23166	158.9	0
16	23166	159	0
16	23166	159.1	0
16	23166	159.2	0
16	23166	159.3	0
16	23166	159.4	0
16	23166	159.5	0
16	23166	159.6	0
16	23166	159.7	0
16	23166	159.8	0
16	23166	159.9	0
16	23166	160	0
16	23166	160.1	0
16	23166	160.2	0
16	23166	160.3	0
16	23166	160.4	0
16	23166	160.5	0
16	23166	160.6	0
16	23166	160.7	0
16	23166	160.8	0
16	23166	160.9	0
16	23166	161	0
16	23166	161.1	0
16	23166	161.2	0
16	23166	161.3	0
16	23166	161.4	0
16	23166	161.5	0
16	23166	161.6	0
16	23166	161.7	0
16	23166	161.8	0
16	23166	161.9	0
16	23166	162	0
16	23166	162.1	0
16	23166	162.2	0
16	23166	162.3	0
16	23166	162.4	0
16	23166	162.5	0
16	23166	162.6	0
16	23166	162.7	0
16	23166	162.8	0
16	23166	162.9	0
16	23166	163	0
16	23166	163.1	0
16	23166	163.2	0
16	23166	163.3	0
16	23166	163.4	0
16	23166	163.5	0
16	23166	163.6	0
16	23166	163.7	0
16	23166	163.8	0
16	23166	163.9	0
16	23166	164	0
16	23166	164.1	0
16	23166	164.2	0
16	23166	164.3	0
16	23166	164.4	0
16	23166	164.5	0
16	23166	164.6	0
16	23166	164.7	0
16	23166	164.8	0
16	23166	164.9	0
16	23166	165	0
16	23166	165.1	0
16	23166	165.2	0
16	23166	165.3	0
16	23166	165.4	0
16	23166	165.5	0
16	23166	165.6	0
16	23166	165.7	0
16	23166	165.8	0
16	23166	165.9	0
16	23166	166	0
16	23166	166.1	0
16	23166	166.2	0
16	23166	166.3	0
16	23166	166.4	0
16	23166	166.5	0
16	23166	166.6	0
16	23166	166.7	0
16	23166	166.8	0
16	23166	166.9	0
16	23166	167	0
16	23166	167.1	0
16	23166	167.2	0
16	23166	167.3	0
16	23166	167.4	0
16	23166	167.5	0
16	23166	167.6	0
16	23166	167.7	0
16	23166	167.8	0
16	23166	167.9	0
16	23166	168	0
16	23166	168.1	0
16	23166	168.2	0
16	23166	168.3	0
16	23166	168.4	0
16	23166	168.5	0
16	23166	168.6	0
16	23166	168.7	0
16	23166	168.8	0
16	23166	168.9	0
16	23166	169	0
16	23166	169.1	0
16	23166	169.2	0
16	23166	169.3	0
16	23166	169.4	0
16	23166	169.5	0
16	23166	169.6	0
16	23166	169.7	0
16	23166	169.8	0
16	23166	169.9	0
16	23166	170	0
16	23166	170.1	0
16	23166	170.2	0
16	23166	170.3	0
16	23166	170.4	0
16	23166	170.5	0
16	23166	170.6	0
16	23166	170.7	0
16	23166	170.8	0
16	23166	170.9	0
16	23166	171	0
16	23166	171.1	0
16	23166	171.2	0
16	23166	171.3	0
16	23166	171.4	0
16	23166	171.5	0
16	23166	171.6	0
16	23166	171.7	0
16	23166	171.8	0
16	23166	171.9	0
16	23166	172	0
16	23166	172.1	0
16	23166	172.2	0
16	23166	172.3	0
16	23166	172.4	0
16	23166	172.5	0
16	23166	172.6	0
16	23166	172.7	0
16	23166	172.8	0
16	23166	172.9	0
16	23166	173	0
16	23166	173.1	0
16	23166	173.2	0
16	23166	173.3	0
16	23166	173.4	0
16	23166	173.5	0
16	23166	173.6	0
16	23166	173.7	0
16	23166	173.8	0
16	23166	173.9	0
16	23166	174	0
16	23166	174.1	0
16	23166	174.2	0
16	23166	174.3	0
16	23166	174.4	0
16	23166	174.5	0
16	23166	174.6	0
16	23166	174.7	0
16	23166	174.8	0
16	23166	174.9	0
16	23166	175	0
16	23166	175.1	0
16	23166	175.2	0
16	23166	175.3	0
16	23166	175.4	0
16	23166	175.5	0
16	23166	175.6	0
16	23166	175.7	0
16	23166	175.8	0
16	23166	175.9	0
16	23166	176	0
16	23166	176.1	0
16	23166	176.2	0
16	23166	176.3	0
16	23166	176.4	0
16	23166	176.5	0
16	23166	176.6	0
16	23166	176.7	0
16	23166	176.8	0
16	23166	176.9	0
16	23166	177	0
16	23166	177.1	0
16	23166	177.2	0
16	23166	177.3	0
16	23166	177.4	0
16	23166	177.5	0
16	23166	177.6	0
16	23166	177.7	0
16	23166	177.8	0
16	23166	177.9	0
16	23166	178	0
16	23166	178.1	0
16	23166	178.2	0
16	23166	178.3	0
16	23166	178.4	0
16	23166	178.5	0
16	23166	178.6	0
16	23166	178.7	0
16	23166	178.8	0
16	23166	178.9	0
16	23166	179	0
16	23166	179.1	0
16	23166	179.2	0
16	23166	179.3	0
16	23166	179.4	0
16	23166	179.5	0
16	23166	179.6	0
16	23166	179.7	0
16	23166	179.8	0
16	23166	179.9	0
16	23166	180	0
16	23166	180.1	0
16	23166	180.2	0
16	23166	180.3	0
16	23166	180.4	0
16	23166	180.5	0
16	23166	180.6	0
16	23166	180.7	0
16	23166	180.8	0
16	23166	180.9	0
16	23166	181	0
16	23166	181.1	0
16	23166	181.2	0
16	23166	181.3	0
16	23166	181.4	0
16	23166	181.5	0
16	23166	181.6	0
16	23166	181.7	0
16	23166	181.8	0
16	23166	181.9	0
16	23166	182	0
16	23166	182.1	0
16	23166	182.2	0
16	23166	182.3	0
16	23166	182.4	0
16	23166	182.5	0
16	23166	182.6	0
16	23166	182.7	0
16	23166	182.8	0
16	23166	182.9	0
16	23166	183	0
16	23166	183.1	0
16	23166	183.2	0
16	23166	183.3	0
16	23166	183.4	0
16	23166	183.5	0
16	23166	183.6	0
16	23166	183.7	0
16	23166	183.8	0
16	23166	183.9	0
16	23166	184	0
16	23166	184.1	0
16	23166	184.2	0
16	23166	184.3	0
16	23166	184.4	0
16	23166	184.5	0
16	23166	184.6	0
16	23166	184.7	0
16	23166	184.8	0
16	23166	184.9	0
16	23166	185	0
16	23166	185.1	0
16	23166	185.2	0
16	23166	185.3	0
16	23166	185.4	0
16	23166	185.5	0
16	23166	185.6	0
16	23166	185.7	0
16	23166	185.8	0
16	23166	185.9	0
16	23166	186	0
16	23166	186.1	0
16	23166	186.2	0
16	23166	186.3	0
16	23166	186.4	0
16	23166	186.5	0
16	23166	186.6	0
16	23166	186.7	0
16	23166	186.8	0
16	23166	186.9	0
16	23166	187	0
16	23166	187.1	0
16	23166	187.2	0
16	23166	187.3	0
16	23166	187.4	0
16	23166	187.5	0
16	23166	187.6	0
16	23166	187.7	0
16	23166	187.8	0
16	23166	187.9	0
16	23166	188	0
16	23166	188.1	0
16	23166	188.2	0
16	23166	188.3	0
16	23166	188.4	0
16	23166	188.5	0
16	23166	188.6	0
16	23166	188.7	0
16	23166	188.8	0
16	23166	188.9	0
16	23166	189	0
16	23166	189.1	0
16	23166	189.2	0
16	23166	189.3	0
16	23166	189.4	0
16	23166	189.5	0
16	23166	189.6	0
16	23166	189.7	0
16	23166	189.8	0
16	23166	189.9	0
16	23166	190	0
16	23166	190.1	0
16	23166	190.2	0
16	23166	190.3	0
16	23166	190.4	0
16	23166	190.5	0
16	23166	190.6	0
16	23166	190.7	0
16	23166	190.8	0
16	23166	190.9	0
16	23166	191	0
16	23166	191.1	0
16	23166	191.2	0
16	23166	191.3	0
16	23166	191.4	0
16	23166	191.5	0
16	23166	191.6	0
16	23166	191.7	0
16	23166	191.8	0
16	23166	191.9	0
16	23166	192	0
16	23166	192.1	0
16	23166	192.2	0
16	23166	192.3	0
16	23166	192.4	0
16	23166	192.5	0
16	23166	192.6	0
16	23166	192.7	0
16	23166	192.8	0
16	23166	192.9	0
16	23166	193	0
16	23166	193.1	0
16	23166	193.2	0
16	23166	193.3	0
16	23166	193.4	0
16	23166	193.5	0
16	23166	193.6	0
16	23166	193.7	0
16	23166	193.8	0
16	23166	193.9	0
16	23166	194	0
16	23166	194.1	0
16	23166	194.2	0
16	23166	194.3	0
16	23166	194.4	0
16	23166	194.5	0
16	23166	194.6	0
16	23166	194.7	0
16	23166	194.8	0
16	23166	194.9	0
16	23166	195	0
16	23166	195.1	0
16	23166	195.2	0
16	23166	195.3	0
16	23166	195.4	0
16	23166	195.5	0
16	23166	195.6	0
16	23166	195.7	0
16	23166	195.8	0
16	23166	195.9	0
16	23166	196	0
16	23166	196.1	0
16	23166	196.2	0
16	23166	196.3	0
16	23166	196.4	0
16	23166	196.5	0
16	23166	196.6	0
16	23166	196.7	0
16	23166	196.8	0
16	23166	196.9	0
16	23166	197	0
16	23166	197.1	0
16	23166	197.2	0
16	23166	197.3	0
16	23166	197.4	0
16	23166	197.5	0
16	23166	197.6	0
16	23166	197.7	0
16	23166	197.8	0
16	23166	197.9	0
16	23166	198	0
16	23166	198.1	0
16	23166	198.2	0
16	23166	198.3	0
16	23166	198.4	0
16	23166	198.5	0
16	23166	198.6	0
16	23166	198.7	0
16	23166	198.8	0
16	23166	198.9	0
16	23166	199	0
16	23166	199.1	0
16	23166	199.2	0
16	23166	199.3	0
16	23166	199.4	0
16	23166	199.5	0
16	23166	199.6	0
16	23166	199.7	0
16	23166	199.8	0
16	23166	199.9	0
16	23166	200	0
16	23166	200.1	0
16	23166	200.2	0
16	23166	200.3	0
16	23166	200.4	0
16	23166	200.5	0
16	23166	200.6	0
16	23166	200.7	0
16	23166	200.8	0
16	23166	200.9	0
16	23166	201	0
16	23166	201.1	0
16	23166	201.2	0
16	23166	201.3	0
16	23166	201.4	0
16	23166	201.5	0
16	23166	201.6	0
16	23166	201.7	0
16	23166	201.8	0
16	23166	201.9	0
16	23166	202	0
16	23166	202.1	0
16	23166	202.2	0
16	23166	202.3	0
16	23166	202.4	0
16	23166	202.5	0
16	23166	202.6	0
16	23166	202.7	0
16	23166	202.8	0
16	23166	202.9	0
16	23166	203	0
16	23166	203.1	0
16	23166	203.2	0
16	23166	203.3	0
16	23166	203.4	0
16	23166	203.5	0
16	23166	203.6	0
16	23166	203.7	0
16	23166	203.8	0
16	23166	203.9	0
16	23166	204	0
16	23166	204.1	0
16	23166	204.2	0
16	23166	204.3	0
16	23166	204.4	0
16	23166	204.5	0
16	23166	204.6	0
16	23166	204.7	0
16	23166	204.8	0
16	23166	204.9	0
16	23166	205	0
16	23166	205.1	0
16	23166	205.2	0
16	23166	205.3	0
16	23166	205.4	0
16	23166	205.5	0
16	23166	205.6	0
16	23166	205.7	0
16	23166	205.8	0
16	23166	205.9	0
16	23166	206	0
16	23166	206.1	0
16	23166	206.2	0
16	23166	206.3	0
16	23166	206.4	0
16	23166	206.5	0
16	23166	206.6	0
16	23166	206.7	0
16	23166	206.8	0
16	23166	206.9	0
16	23166	207	0
16	23166	207.1	0
16	23166	207.2	0
16	23166	207.3	0
16	23166	207.4	0
16	23166	207.5	0
16	23166	207.6	0
16	23166	207.7	0
16	23166	207.8	0
16	23166	207.9	0
16	23166	208	0
16	23166	208.1	0
16	23166	208.2	0
16	23166	208.3	0
16	23166	208.4	0
16	23166	208.5	0
16	23166	208.6	0
16	23166	208.7	0
16	23166	208.8	0
16	23166	208.9	0
16	23166	209	0
16	23166	209.1	0
16	23166	209.2	0
16	23166	209.3	0
16	23166	209.4	0
16	23166	209.5	0
16	23166	209.6	0
16	23166	209.7	0
16	23166	209.8	0
16	23166	209.9	0
16	23166	210	0
16	23166	210.1	0
16	23166	210.2	0
16	23166	210.3	0
16	23166	210.4	0
16	23166	210.5	0
16	23166	210.6	0
16	23166	210.7	0
16	23166	210.8	0
16	23166	210.9	0
16	23166	211	0
16	23166	211.1	0
16	23166	211.2	0
16	23166	211.3	0
16	23166	211.4	0
16	23166	211.5	0
16	23166	211.6	0
16	23166	211.7	0
16	23166	211.8	0
16	23166	211.9	0
16	23166	212	0
16	23166	212.1	0
16	23166	212.2	0
16	23166	212.3	0
16	23166	212.4	0
16	23166	212.5	0
16	23166	212.6	0
16	23166	212.7	0
16	23166	212.8	0
16	23166	212.9	0
16	23166	213	0
16	23166	213.1	0
16	23166	213.2	0
16	23166	213.3	0
16	23166	213.4	0
16	23166	213.5	0
16	23166	213.6	0
16	23166	213.7	0
16	23166	213.8	0
16	23166	213.9	0
16	23166	214	0
16	23166	214.1	0
16	23166	214.2	0
16	23166	214.3	0
16	23166	214.4	0
16	23166	214.5	0
16	23166	214.6	0
16	23166	214.7	0
16	23166	214.8	0
16	23166	214.9	0
16	23166	215	0
16	23166	215.1	0
16	23166	215.2	0
16	23166	215.3	0
16	23166	215.4	0
16	23166	215.5	0
16	23166	215.6	0
16	23166	215.7	0
16	23166	215.8	0
16	23166	215.9	0
16	23166	216	0
16	23166	216.1	0
16	23166	216.2	0
16	23166	216.3	0
16	23166	216.4	0
16	23166	216.5	0
16	23166	216.6	0
16	23166	216.7	0
16	23166	216.8	0
16	23166	216.9	0
16	23166	217	0
16	23166	217.1	0
16	23166	217.2	0
16	23166	217.3	0
16	23166	217.4	0
16	23166	217.5	0
16	23166	217.6	0
16	23166	217.7	0
16	23166	217.8	0
16	23166	217.9	0
16	23166	218	0
16	23166	218.1	0
16	23166	218.2	0
16	23166	218.3	0
16	23166	218.4	0
16	23166	218.5	0
16	23166	218.6	0
16	23166	218.7	0
16	23166	218.8	0
16	23166	218.9	0
16	23166	219	0
16	23166	219.1	0
16	23166	219.2	0
16	23166	219.3	0
16	23166	219.4	0
16	23166	219.5	0
16	23166	219.6	0
16	23166	219.7	0
16	23166	219.8	0
16	23166	219.9	0
16	23166	220	0
16	23166	220.1	0
16	23166	220.2	0
16	23166	220.3	0
16	23166	220.4	0
16	23166	220.5	0
16	23166	220.6	0
16	23166	220.7	0
16	23166	220.8	0
16	23166	220.9	0
16	23166	221	0
16	23166	221.1	0
16	23166	221.2	0
16	23166	221.3	0
16	23166	221.4	0
16	23166	221.5	0
16	23166	221.6	0
16	23166	221.7	0
16	23166	221.8	0
16	23166	221.9	0
16	23166	222	0
16	23166	222.1	0
16	23166	222.2	0
16	23166	222.3	0
16	23166	222.4	0
16	23166	222.5	0
16	23166	222.6	0
16	23166	222.7	0
16	23166	222.8	0
16	23166	222.9	0
16	23166	223	0
16	23166	223.1	0
16	23166	223.2	0
16	23166	223.3	0
16	23166	223.4	0
16	23166	223.5	0
16	23166	223.6	0
16	23166	223.7	0
16	23166	223.8	0
16	23166	223.9	0
16	23166	224	0
16	23166	224.1	0
16	23166	224.2	0
16	23166	224.3	0
16	23166	224.4	0
16	23166	224.5	0
16	23166	224.6	0
16	23166	224.7	0
16	23166	224.8	0
16	23166	224.9	0
16	23166	225	0
16	23166	225.1	0
16	23166	225.2	0
16	23166	225.3	0
16	23166	225.4	0
16	23166	225.5	0
16	23166	225.6	0
16	23166	225.7	0
16	23166	225.8	0
16	23166	225.9	0
16	23166	226	0
16	23166	226.1	0
16	23166	226.2	0
16	23166	226.3	0
16	23166	226.4	0
16	23166	226.5	0
16	23166	226.6	0
16	23166	226.7	0
16	23166	226.8	0
16	23166	226.9	0
16	23166	227	0
16	23166	227.1	0
16	23166	227.2	0
16	23166	227.3	0
16	23166	227.4	0
16	23166	227.5	0
16	23166	227.6	0
16	23166	227.7	0
16	23166	227.8	0
16	23166	227.9	0
16	23166	228	0
16	23166	228.1	0
16	23166	228.2	0
16	23166	228.3	0
16	23166	228.4	0
16	23166	228.5	0
16	23166	228.6	0
16	23166	228.7	0
16	23166	228.8	0
16	23166	228.9	0
16	23166	229	0
16	23166	229.1	0
16	23166	229.2	0
16	23166	229.3	0
16	23166	229.4	0
16	23166	229.5	0
16	23166	229.6	0
16	23166	229.7	0
16	23166	229.8	0
16	23166	229.9	0
16	23166	230	0
16	23166	230.1	0
16	23166	230.2	0
16	23166	230.3	0
16	23166	230.4	0
16	23166	230.5	0
16	23166	230.6	0
16	23166	230.7	0
16	23166	230.8	0
16	23166	230.9	0
16	23166	231	0
16	23166	231.1	0
16	23166	231.2	0
16	23166	231.3	0
16	23166	231.4	0
16	23166	231.5	0
16	23166	231.6	0
16	23166	231.7	0
16	23166	231.8	0
16	23166	231.9	0
16	23166	232	0
16	23166	232.1	0
16	23166	232.2	0
16	23166	232.3	0
16	23166	232.4	0
16	23166	232.5	0
16	23166	232.6	0
16	23166	232.7	0
16	23166	232.8	0
16	23166	232.9	0
16	23166	233	0
16	23166	233.1	0
16	23166	233.2	0
16	23166	233.3	0
16	23166	233.4	0
16	23166	233.5	0
16	23166	233.6	0
16	23166	233.7	0
16	23166	233.8	0
16	23166	233.9	0
16	23166	234	0
16	23166	234.1	0
16	23166	234.2	0
16	23166	234.3	0
16	23166	234.4	0
16	23166	234.5	0
16	23166	234.6	0
16	23166	234.7	0
16	23166	234.8	0
16	23166	234.9	0
16	23166	235	0
16	23166	235.1	0
16	23166	235.2	0
16	23166	235.3	0
16	23166	235.4	0
16	23166	235.5	0
16	23166	235.6	0
16	23166	235.7	0
16	23166	235.8	0
16	23166	235.9	0
16	23166	236	0
16	23166	236.1	0
16	23166	236.2	0
16	23166	236.3	0
16	23166	236.4	0
16	23166	236.5	0
16	23166	236.6	0
16	23166	236.7	0
16	23166	236.8	0
16	23166	236.9	0
16	23166	237	0
16	23166	237.1	0
16	23166	237.2	0
16	23166	237.3	0
16	23166	237.4	0
16	23166	237.5	0
16	23166	237.6	0
16	23166	237.7	0
16	23166	237.8	0
16	23166	237.9	0
16	23166	238	0
16	23166	238.1	0
16	23166	238.2	0
16	23166	238.3	0
16	23166	238.4	0
16	23166	238.5	0
16	23166	238.6	0
16	23166	238.7	0
16	23166	238.8	0
16	23166	238.9	0
16	23166	239	0
16	23166	239.1	0
16	23166	239.2	0
16	23166	239.3	0
16	23166	239.4	0
16	23166	239.5	0
16	23166	239.6	0
16	23166	239.7	0
16	23166	239.8	0
16	23166	239.9	0
16	23166	240	0
16	23166	240.1	0
16	23166	240.2	0
16	23166	240.3	0
16	23166	240.4	0
16	23166	240.5	0
16	23166	240.6	0
16	23166	240.7	0
16	23166	240.8	0
16	23166	240.9	0
16	23166	241	0
16	23166	241.1	0
16	23166	241.2	0
16	23166	241.3	0
16	23166	241.4	0
16	23166	241.5	0
16	23166	241.6	0
16	23166	241.7	0
16	23166	241.8	0
16	23166	241.9	0
16	23166	242	0
16	23166	242.1	0
16	23166	242.2	0
16	23166	242.3	0
16	23166	242.4	0
16	23166	242.5	0
16	23166	242.6	0
16	23166	242.7	0
16	23166	242.8	0
16	23166	242.9	0
16	23166	243	0
16	23166	243.1	0
16	23166	243.2	0
16	23166	243.3	0
16	23166	243.4	0
16	23166	243.5	0
16	23166	243.6	0
16	23166	243.7	0
16	23166	243.8	0
16	23166	243.9	0
16	23166	244	0
16	23166	244.1	0
16	23166	244.2	0
16	23166	244.3	0
16	23166	244.4	0
16	23166	244.5	0
16	23166	244.6	0
16	23166	244.7	0
16	23166	244.8	0
16	23166	244.9	0
16	23166	245	0
16	23166	245.1	0
16	23166	245.2	0
16	23166	245.3	0
16	23166	245.4	0
16	23166	245.5	0
16	23166	245.6	0
16	23166	245.7	0
16	23166	245.8	0
16	23166	245.9	0
16	23166	246	0
16	23166	246.1	0
16	23166	246.2	0
16	23166	246.3	0
16	23166	246.4	0
16	23166	246.5	0
16	23166	246.6	0
16	23166	246.7	0
16	23166	246.8	0
16	23166	246.9	0
16	23166	247	0
16	23166	247.1	0
16	23166	247.2	0
16	23166	247.3	0
16	23166	247.4	0
16	23166	247.5	0
16	23166	247.6	0
16	23166	247.7	0
16	23166	247.8	0
16	23166	247.9	0
16	23166	248	0
16	23166	248.1	0
16	23166	248.2	0
16	23166	248.3	0
16	23166	248.4	0
16	23166	248.5	0
16	23166	248.6	0
16	23166	248.7	0
16	23166	248.8	0
16	23166	248.9	0
16	23166	249	0
16	23166	249.1	0
16	23166	249.2	0
16	23166	249.3	0
16	23166	249.4	0
16	23166	249.5	0
16	23166	249.6	0
16	23166	249.7	0
16	23166	249.8	0
16	23166	249.9	0
16	23166	250	0
16	23166	250.1	0
16	23166	250.2	0
16	23166	250.3	0
16	23166	250.4	0
16	23166	250.5	0
16	23166	250.6	0
16	23166	250.7	0
16	23166	250.8	0
16	23166	250.9	0
16	23166	251	0
16	23166	251.1	0
16	23166	251.2	0
16	23166	251.3	0
16	23166	251.4	0
16	23166	251.5	0
16	23166	251.6	0
16	23166	251.7	0
16	23166	251.8	0
16	23166	251.9	0
16	23166	252	0
16	23166	252.1	0
16	23166	252.2	0
16	23166	252.3	0
16	23166	252.4	0
16	23166	252.5	0
16	23166	252.6	0
16	23166	252.7	0
16	23166	252.8	0
16	23166	252.9	0
16	23166	253	0
16	23166	253.1	0
16	23166	253.2	0
16	23166	253.3	0
16	23166	253.4	0
16	23166	253.5	0
16	23166	253.6	0
16	23166	253.7	0
16	23166	253.8	0
16	23166	253.9	0
16	23166	254	0
16	23166	254.1	0
16	23166	254.2	0
16	23166	254.3	0
16	23166	254.4	0
16	23166	254.5	0
16	23166	254.6	0
16	23166	254.7	0
16	23166	254.8	0
16	23166	254.9	0
16	23166	255	0
16	23166	255.1	0
16	23166	255.2	0
16	23166	255.3	0
16	23166	255.4	0
16	23166	255.5	0
16	23166	255.6	0
16	23166	255.7	0
16	23166	255.8	0
16	23166	255.9	0
16	23166	256	0
16	23166	256.1	0
16	23166	256.2	0
16	23166	256.3	0
16	23166	256.4	0
16	23166	256.5	0
16	23166	256.6	0
16	23166	256.7	0
16	23166	256.8	0
16	23166	256.9	0
16	23166	257	0
16	23166	257.1	0
16	23166	257.2	0
16	23166	257.3	0
16	23166	257.4	0
16	23166	257.5	0
16	23166	257.6	0
16	23166	257.7	0
16	23166	257.8	0
16	23166	257.9	0
16	23166	258	0
16	23166	258.1	0
16	23166	258.2	0
16	23166	258.3	0
16	23166	258.4	0
16	23166	258.5	0
16	23166	258.6	0
16	23166	258.7	0
16	23166	258.8	0
16	23166	258.9	0
16	23166	259	0
16	23166	259.1	0
16	23166	259.2	0
16	23166	259.3	0
16	23166	259.4	0
16	23166	259.5	0
16	23166	259.6	0
16	23166	259.7	0
16	23166	259.8	0
16	23166	259.9	0
16	23166	260	0
16	23166	260.1	0
16	23166	260.2	0
16	23166	260.3	0
16	23166	260.4	0
16	23166	260.5	0
16	23166	260.6	0
16	23166	260.7	0
16	23166	260.8	0
16	23166	260.9	0
16	23166	261	0
16	23166	261.1	0
16	23166	261.2	0
16	23166	261.3	0
16	23166	261.4	0
16	23166	261.5	0
16	23166	261.6	0
16	23166	261.7	0
16	23166	261.8	0
16	23166	261.9	0
16	23166	262	0
16	23166	262.1	0
16	23166	262.2	0
16	23166	262.3	0
16	23166	262.4	0
16	23166	262.5	0
16	23166	262.6	0
16	23166	262.7	0
16	23166	262.8	0
16	23166	262.9	0
16	23166	263	0
16	23166	263.1	0
16	23166	263.2	0
16	23166	263.3	0
16	23166	263.4	0
16	23166	263.5	0
16	23166	263.6	0
16	23166	263.7	0
16	23166	263.8	0
16	23166	263.9	0
16	23166	264	0
16	23166	264.1	0
16	23166	264.2	0
16	23166	264.3	0
16	23166	264.4	0
16	23166	264.5	0
16	23166	264.6	0
16	23166	264.7	0
16	23166	264.8	0
16	23166	264.9	0
16	23166	265	0
16	23166	265.1	0
16	23166	265.2	0
16	23166	265.3	0
16	23166	265.4	0
16	23166	265.5	0
16	23166	265.6	0
16	23166	265.7	0
16	23166	265.8	0
16	23166	265.9	0
16	23166	266	0
16	23166	266.1	0
16	23166	266.2	0
16	23166	266.3	0
16	23166	266.4	0
16	23166	266.5	0
16	23166	266.6	0
16	23166	266.7	0
16	23166	266.8	0
16	23166	266.9	0
16	23166	267	0
16	23166	267.1	0
16	23166	267.2	0
16	23166	267.3	0
16	23166	267.4	0
16	23166	267.5	0
16	23166	267.6	0
16	23166	267.7	0
16	23166	267.8	0
16	23166	267.9	0
16	23166	268	0
16	23166	268.1	0
16	23166	268.2	0
16	23166	268.3	0
16	23166	268.4	0
16	23166	268.5	0
16	23166	268.6	0
16	23166	268.7	0
16	23166	268.8	0
16	23166	268.9	0
16	23166	269	0
16	23166	269.1	0
16	23166	269.2	0
16	23166	269.3	0
16	23166	269.4	0
16	23166	269.5	0
16	23166	269.6	0
16	23166	269.7	0
16	23166	269.8	0
16	23166	269.9	0
16	23166	270	0
16	23166	270.1	0
16	23166	270.2	0
16	23166	270.3	0
16	23166	270.4	0
16	23166	270.5	0
16	23166	270.6	0
16	23166	270.7	0
16	23166	270.8	0
16	23166	270.9	0
16	23166	271	0
16	23166	271.1	0
16	23166	271.2	0
16	23166	271.3	0
16	23166	271.4	0
16	23166	271.5	0
16	23166	271.6	0
16	23166	271.7	0
16	23166	271.8	0
16	23166	271.9	0
16	23166	272	0
16	23166	272.1	0
16	23166	272.2	0
16	23166	272.3	0
16	23166	272.4	0
16	23166	272.5	0
16	23166	272.6	0
16	23166	272.7	0
16	23166	272.8	0
16	23166	272.9	0
16	23166	273	0
16	23166	273.1	0
16	23166	273.2	0
16	23166	273.3	0
16	23166	273.4	0
16	23166	273.5	0
16	23166	273.6	0
16	23166	273.7	0
16	23166	273.8	0
16	23166	273.9	0
16	23166	274	0
16	23166	274.1	0
16	23166	274.2	0
16	23166	274.3	0
16	23166	274.4	0
16	23166	274.5	0
16	23166	274.6	0
16	23166	274.7	0
16	23166	274.8	0
16	23166	274.9	0
16	23166	275	0
16	23166	275.1	0
16	23166	275.2	0
16	23166	275.3	0
16	23166	275.4	0
16	23166	275.5	0
16	23166	275.6	0
16	23166	275.7	0
16	23166	275.8	0
16	23166	275.9	0
16	23166	276	0
16	23166	276.1	0
16	23166	276.2	0
16	23166	276.3	0
16	23166	276.4	0
16	23166	276.5	0
16	23166	276.6	0
16	23166	276.7	0
16	23166	276.8	0
16	23166	276.9	0
16	23166	277	0
16	23166	277.1	0
16	23166	277.2	0
16	23166	277.3	0
16	23166	277.4	0
16	23166	277.5	0
16	23166	277.6	0
16	23166	277.7	0
16	23166	277.8	0
16	23166	277.9	0
16	23166	278	0
16	23166	278.1	0
16	23166	278.2	0
16	23166	278.3	0
16	23166	278.4	0
16	23166	278.5	0
16	23166	278.6	0
16	23166	278.7	0
16	23166	278.8	0
16	23166	278.9	0
16	23166	279	0
16	23166	279.1	0
16	23166	279.2	0
16	23166	279.3	0
16	23166	279.4	0
16	23166	279.5	0
16	23166	279.6	0
16	23166	279.7	0
16	23166	279.8	0
16	23166	279.9	0
16	23166	280	0
16	23166	280.1	0
16	23166	280.2	0
16	23166	280.3	0
16	23166	280.4	0
16	23166	280.5	0
16	23166	280.6	0
16	23166	280.7	0
16	23166	280.8	0
16	23166	280.9	0
16	23166	281	0
16	23166	281.1	0
16	23166	281.2	0
16	23166	281.3	0
16	23166	281.4	0
16	23166	281.5	0
16	23166	281.6	0
16	23166	281.7	0
16	23166	281.8	0
16	23166	281.9	0
16	23166	282	0
16	23166	282.1	0
16	23166	282.2	0
16	23166	282.3	0
16	23166	282.4	0
16	23166	282.5	0
16	23166	282.6	0
16	23166	282.7	0
16	23166	282.8	0
16	23166	282.9	0
16	23166	283	0
16	23166	283.1	0
16	23166	283.2	0
16	23166	283.3	0
16	23166	283.4	0
16	23166	283.5	0
16	23166	283.6	0
16	23166	283.7	0
16	23166	283.8	0
16	23166	283.9	0
16	23166	284	0
16	23166	284.1	0
16	23166	284.2	0
16	23166	284.3	0
16	23166	284.4	0
16	23166	284.5	0
16	23166	284.6	0
16	23166	284.7	0
16	23166	284.8	0
16	23166	284.9	0
16	23166	285	0
16	23166	285.1	0
16	23166	285.2	0
16	23166	285.3	0
16	23166	285.4	0
16	23166	285.5	0
16	23166	285.6	0
16	23166	285.7	0
16	23166	285.8	0
16	23166	285.9	0
16	23166	286	0
16	23166	286.1	0
16	23166	286.2	0
16	23166	286.3	0
16	23166	286.4	0
16	23166	286.5	0
16	23166	286.6	0
16	23166	286.7	0
16	23166	286.8	0
16	23166	286.9	0
16	23166	287	0
16	23166	287.1	0
16	23166	287.2	0
16	23166	287.3	0
16	23166	287.4	0
16	23166	287.5	0
16	23166	287.6	0
16	23166	287.7	0
16	23166	287.8	0
16	23166	287.9	0
16	23166	288	0
16	23166	288.1	0
16	23166	288.2	0
16	23166	288.3	0
16	23166	288.4	0
16	23166	288.5	0
16	23166	288.6	0
16	23166	288.7	0
16	23166	288.8	0
16	23166	288.9	0
16	23166	289	0
16	23166	289.1	0
16	23166	289.2	0
16	23166	289.3	0
16	23166	289.4	0
16	23166	289.5	0
16	23166	289.6	0
16	23166	289.7	0
16	23166	289.8	0
16	23166	289.9	0
16	23166	290	0
16	23166	290.1	0
16	23166	290.2	0
16	23166	290.3	0
16	23166	290.4	0
16	23166	290.5	0
16	23166	290.6	0
16	23166	290.7	0
16	23166	290.8	0
16	23166	290.9	0
16	23166	291	0
16	23166	291.1	0
16	23166	291.2	0
16	23166	291.3	0
16	23166	291.4	0
16	23166	291.5	0
16	23166	291.6	0
16	23166	291.7	0
16	23166	291.8	0
16	23166	291.9	0
16	23166	292	0
16	23166	292.1	0
16	23166	292.2	0
16	23166	292.3	0
16	23166	292.4	0
16	23166	292.5	0
16	23166	292.6	0
16	23166	292.7	0
16	23166	292.8	0
16	23166	292.9	0
16	23166	293	0
16	23166	293.1	0
16	23166	293.2	0
16	23166	293.3	0
16	23166	293.4	0
16	23166	293.5	0
16	23166	293.6	0
16	23166	293.7	0
16	23166	293.8	0
16	23166	293.9	0
16	23166	294	0
16	23166	294.1	0
16	23166	294.2	0
16	23166	294.3	0
16	23166	294.4	0
16	23166	294.5	0
16	23166	294.6	0
16	23166	294.7	0
16	23166	294.8	0
16	23166	294.9	0
16	23166	295	0
16	23166	295.1	0
16	23166	295.2	0
16	23166	295.3	0
16	23166	295.4	0
16	23166	295.5	0
16	23166	295.6	0
16	23166	295.7	0
16	23166	295.8	0
16	23166	295.9	0
16	23166	296	0
16	23166	296.1	0
16	23166	296.2	0
16	23166	296.3	0
16	23166	296.4	0
16	23166	296.5	0
16	23166	296.6	0
16	23166	296.7	0
16	23166	296.8	0
16	23166	296.9	0
16	23166	297	0
16	23166	297.1	0
16	23166	297.2	0
16	23166	297.3	0
16	23166	297.4	0
16	23166	297.5	0
16	23166	297.6	0
16	23166	297.7	0
16	23166	297.8	0
16	23166	297.9	0
16	23166	298	0
16	23166	298.1	0
16	23166	298.2	0
16	23166	298.3	0
16	23166	298.4	0
16	23166	298.5	0
16	23166	298.6	0
16	23166	298.7	0
16	23166	298.8	0
16	23166	298.9	0
16	23166	299	0
16	23166	299.1	0
16	23166	299.2	0
16	23166	299.3	0
16	23166	299.4	0
16	23166	299.5	0
16	23166	299.6	0
16	23166	299.7	0
16	23166	299.8	0
16	23166	299.9	0
16	23166	300	0
16	23166	300.1	0
16	23166	300.2	0
16	23166	300.3	0
16	23166	300.4	0
16	23166	300.5	0
16	23166	300.6	0
16	23166	300.7	0
16	23166	300.8	0
16	23166	300.9	0
16	23166	301	0
16	23166	301.1	0
16	23166	301.2	0
16	23166	301.3	0
16	23166	301.4	0
16	23166	301.5	0
16	23166	301.6	0
16	23166	301.7	0
16	23166	301.8	0
16	23166	301.9	0
16	23166	302	0
16	23166	302.1	0
16	23166	302.2	0
16	23166	302.3	0
16	23166	302.4	0
16	23166	302.5	0
16	23166	302.6	0
16	23166	302.7	0
16	23166	302.8	0
16	23166	302.9	0
16	23166	303	0
16	23166	303.1	0
16	23166	303.2	0
16	23166	303.3	0
16	23166	303.4	0
16	23166	303.5	0
16	23166	303.6	0
16	23166	303.7	0
16	23166	303.8	0
16	23166	303.9	0
16	23166	304	0
16	23166	304.1	0
16	23166	304.2	0
16	23166	304.3	0
16	23166	304.4	0
16	23166	304.5	0
16	23166	304.6	0
16	23166	304.7	0
16	23166	304.8	0
16	23166	304.9	0
16	23166	305	0
16	23166	305.1	0
16	23166	305.2	0
16	23166	305.3	0
16	23166	305.4	0
16	23166	305.5	0
16	23166	305.6	0
16	23166	305.7	0
16	23166	305.8	0
16	23166	305.9	0
16	23166	306	0
16	23166	306.1	0
16	23166	306.2	0
16	23166	306.3	0
16	23166	306.4	0
16	23166	306.5	0
16	23166	306.6	0
16	23166	306.7	0
16	23166	306.8	0
16	23166	306.9	0
16	23166	307	0
16	23166	307.1	0
16	23166	307.2	0
16	23166	307.3	0
16	23166	307.4	0
16	23166	307.5	0
16	23166	307.6	0
16	23166	307.7	0
16	23166	307.8	0
16	23166	307.9	0
16	23166	308	0
16	23166	308.1	0
16	23166	308.2	0
16	23166	308.3	0
16	23166	308.4	0
16	23166	308.5	0
16	23166	308.6	0
16	23166	308.7	0
16	23166	308.8	0
16	23166	308.9	0
16	23166	309	0
16	23166	309.1	0
16	23166	309.2	0
16	23166	309.3	0
16	23166	309.4	0
16	23166	309.5	0
16	23166	309.6	0
16	23166	309.7	0
16	23166	309.8	0
16	23166	309.9	0
16	23166	310	0
16	23166	310.1	0
16	23166	310.2	0
16	23166	310.3	0
16	23166	310.4	0
16	23166	310.5	0
16	23166	310.6	0
16	23166	310.7	0
16	23166	310.8	0
16	23166	310.9	0
16	23166	311	0
16	23166	311.1	0
16	23166	311.2	0
16	23166	311.3	0
16	23166	311.4	0
16	23166	311.5	0
16	23166	311.6	0
16	23166	311.7	0
16	23166	311.8	0
16	23166	311.9	0
16	23166	312	0
16	23166	312.1	0
16	23166	312.2	0
16	23166	312.3	0
16	23166	312.4	0
16	23166	312.5	0
16	23166	312.6	0
16	23166	312.7	0
16	23166	312.8	0
16	23166	312.9	0
16	23166	313	0
16	23166	313.1	0
16	23166	313.2	0
16	23166	313.3	0
16	23166	313.4	0
16	23166	313.5	0
16	23166	313.6	0
16	23166	313.7	0
16	23166	313.8	0
16	23166	313.9	0
16	23166	314	0
16	23166	314.1	0
16	23166	314.2	0
16	23166	314.3	0
16	23166	314.4	0
16	23166	314.5	0
16	23166	314.6	0
16	23166	314.7	0
16	23166	314.8	0
16	23166	314.9	0
16	23166	315	0
16	23166	315.1	0
16	23166	315.2	0
16	23166	315.3	0
16	23166	315.4	0
16	23166	315.5	0
16	23166	315.6	0
16	23166	315.7	0
16	23166	315.8	0
16	23166	315.9	0
16	23166	316	0
16	23166	316.1	0
16	23166	316.2	0
16	23166	316.3	0
16	23166	316.4	0
16	23166	316.5	0
16	23166	316.6	0
16	23166	316.7	0
16	23166	316.8	0
16	23166	316.9	0
16	23166	317	0
16	23166	317.1	0
16	23166	317.2	0
16	23166	317.3	0
16	23166	317.4	0
16	23166	317.5	0
16	23166	317.6	0
16	23166	317.7	0
16	23166	317.8	0
16	23166	317.9	0
16	23166	318	0
16	23166	318.1	0
16	23166	318.2	0
16	23166	318.3	0
16	23166	318.4	0
16	23166	318.5	0
16	23166	318.6	0
16	23166	318.7	0
16	23166	318.8	0
16	23166	318.9	0
16	23166	319	0
16	23166	319.1	0
16	23166	319.2	0
16	23166	319.3	0
16	23166	319.4	0
16	23166	319.5	0
16	23166	319.6	0
16	23166	319.7	0
16	23166	319.8	0
16	23166	319.9	0
16	23166	320	0
16	23166	320.1	0
16	23166	320.2	0
16	23166	320.3	0
16	23166	320.4	0
16	23166	320.5	0
16	23166	320.6	0
16	23166	320.7	0
16	23166	320.8	0
16	23166	320.9	0
16	23166	321	0
16	23166	321.1	0
16	23166	321.2	0
16	23166	321.3	0
16	23166	321.4	0
16	23166	321.5	0
16	23166	321.6	0
16	23166	321.7	0
16	23166	321.8	0
16	23166	321.9	0
16	23166	322	0
16	23166	322.1	0
16	23166	322.2	0
16	23166	322.3	0
16	23166	322.4	0
16	23166	322.5	0
16	23166	322.6	0
16	23166	322.7	0
16	23166	322.8	0
16	23166	322.9	0
16	23166	323	0
16	23166	323.1	0
16	23166	323.2	0
16	23166	323.3	0
16	23166	323.4	0
16	23166	323.5	0
16	23166	323.6	0
16	23166	323.7	0
16	23166	323.8	0
16	23166	323.9	0
16	23166	324	0
16	23166	324.1	0
16	23166	324.2	0
16	23166	324.3	0
16	23166	324.4	0
16	23166	324.5	0
16	23166	324.6	0
16	23166	324.7	0
16	23166	324.8	0
16	23166	324.9	0
16	23166	325	0
16	23166	325.1	0
16	23166	325.2	0
16	23166	325.3	0
16	23166	325.4	0
16	23166	325.5	0
16	23166	325.6	0
16	23166	325.7	0
16	23166	325.8	0
16	23166	325.9	0
16	23166	326	0
16	23166	326.1	0
16	23166	326.2	0
16	23166	326.3	0
16	23166	326.4	0
16	23166	326.5	0
16	23166	326.6	0
16	23166	326.7	0
16	23166	326.8	0
16	23166	326.9	0
16	23166	327	0
16	23166	327.1	0
16	23166	327.2	0
16	23166	327.3	0
16	23166	327.4	0
16	23166	327.5	0
16	23166	327.6	0
16	23166	327.7	0
16	23166	327.8	0
16	23166	327.9	0
16	23166	328	0
16	23166	328.1	0
16	23166	328.2	0
16	23166	328.3	0
16	23166	328.4	0
16	23166	328.5	0
16	23166	328.6	0
16	23166	328.7	0
16	23166	328.8	0
16	23166	328.9	0
16	23166	329	0
16	23166	329.1	0
16	23166	329.2	0
16	23166	329.3	0
16	23166	329.4	0
16	23166	329.5	0
16	23166	329.6	0
16	23166	329.7	0
16	23166	329.8	0
16	23166	329.9	0
16	23166	330	0
16	23166	330.1	0
16	23166	330.2	0
16	23166	330.3	0
16	23166	330.4	0
16	23166	330.5	0
16	23166	330.6	0
16	23166	330.7	0
16	23166	330.8	0
16	23166	330.9	0
16	23166	331	0
16	23166	331.1	0
16	23166	331.2	0
16	23166	331.3	0
16	23166	331.4	0
16	23166	331.5	0
16	23166	331.6	0
16	23166	331.7	0
16	23166	331.8	0
16	23166	331.9	0
16	23166	332	0
16	23166	332.1	0
16	23166	332.2	0
16	23166	332.3	0
16	23166	332.4	0
16	23166	332.5	0
16	23166	332.6	0
16	23166	332.7	0
16	23166	332.8	0
16	23166	332.9	0
16	23166	333	0
16	23166	333.1	0
16	23166	333.2	0
16	23166	333.3	0
16	23166	333.4	0
16	23166	333.5	0
16	23166	333.6	0
16	23166	333.7	0
16	23166	333.8	0
16	23166	333.9	0
16	23166	334	0
16	23166	334.1	0
16	23166	334.2	0
16	23166	334.3	0
16	23166	334.4	0
16	23166	334.5	0
16	23166	334.6	0
16	23166	334.7	0
16	23166	334.8	0
16	23166	334.9	0
16	23166	335	0
16	23166	335.1	0
16	23166	335.2	0
16	23166	335.3	0
16	23166	335.4	0
16	23166	335.5	0
16	23166	335.6	0
16	23166	335.7	0
16	23166	335.8	0
16	23166	335.9	0
16	23166	336	0
16	23166	336.1	0
16	23166	336.2	0
16	23166	336.3	0
16	23166	336.4	0
16	23166	336.5	0
16	23166	336.6	0
16	23166	336.7	0
16	23166	336.8	0
16	23166	336.9	0
16	23166	337	0
16	23166	337.1	0
16	23166	337.2	0
16	23166	337.3	0
16	23166	337.4	0
16	23166	337.5	0
16	23166	337.6	0
16	23166	337.7	0
16	23166	337.8	0
16	23166	337.9	0
16	23166	338	0
16	23166	338.1	0
16	23166	338.2	0
16	23166	338.3	0
16	23166	338.4	0
16	23166	338.5	0
16	23166	338.6	0
16	23166	338.7	0
16	23166	338.8	0
16	23166	338.9	0
16	23166	339	0
16	23166	339.1	0
16	23166	339.2	0
16	23166	339.3	0
16	23166	339.4	0
16	23166	339.5	0
16	23166	339.6	0
16	23166	339.7	0
16	23166	339.8	0
16	23166	339.9	0
16	23166	340	0
16	23166	340.1	0
16	23166	340.2	0
16	23166	340.3	0
16	23166	340.4	0
16	23166	340.5	0
16	23166	340.6	0
16	23166	340.7	0
16	23166	340.8	0
16	23166	340.9	0
16	23166	341	0
16	23166	341.1	0
16	23166	341.2	0
16	23166	341.3	0
16	23166	341.4	0
16	23166	341.5	0
16	23166	341.6	0
16	23166	341.7	0
16	23166	341.8	0
16	23166	341.9	0
16	23166	342	0
16	23166	342.1	0
16	23166	342.2	0
16	23166	342.3	0
16	23166	342.4	0
16	23166	342.5	0
16	23166	342.6	0
16	23166	342.7	0
16	23166	342.8	0
16	23166	342.9	0
16	23166	343	0
16	23166	343.1	0
16	23166	343.2	0
16	23166	343.3	0
16	23166	343.4	0
16	23166	343.5	0
16	23166	343.6	0
16	23166	343.7	0
16	23166	343.8	0
16	23166	343.9	0
16	23166	344	0
16	23166	344.1	0
16	23166	344.2	0
16	23166	344.3	0
16	23166	344.4	0
16	23166	344.5	0
16	23166	344.6	0
16	23166	344.7	0
16	23166	344.8	0
16	23166	344.9	0
16	23166	345	0
16	23166	345.1	0
16	23166	345.2	0
16	23166	345.3	0
16	23166	345.4	0
16	23166	345.5	0
16	23166	345.6	0
16	23166	345.7	0
16	23166	345.8	0
16	23166	345.9	0
16	23166	346	0
16	23166	346.1	0
16	23166	346.2	0
16	23166	346.3	0
16	23166	346.4	0
16	23166	346.5	0
16	23166	346.6	0
16	23166	346.7	0
16	23166	346.8	0
16	23166	346.9	0
16	23166	347	0
16	23166	347.1	0
16	23166	347.2	0
16	23166	347.3	0
16	23166	347.4	0
16	23166	347.5	0
16	23166	347.6	0
16	23166	347.7	0
16	23166	347.8	0
16	23166	347.9	0
16	23166	348	0
16	23166	348.1	0
16	23166	348.2	0
16	23166	348.3	0
16	23166	348.4	0
16	23166	348.5	0
16	23166	348.6	0
16	23166	348.7	0
16	23166	348.8	0
16	23166	348.9	0
16	23166	349	0
16	23166	349.1	0
16	23166	349.2	0
16	23166	349.3	0
16	23166	349.4	0
16	23166	349.5	0
16	23166	349.6	0
16	23166	349.7	0
16	23166	349.8	0
16	23166	349.9	0
16	23166	350	0
16	23166	350.1	0
16	23166	350.2	0
16	23166	350.3	0
16	23166	350.4	0
16	23166	350.5	0
16	23166	350.6	0
16	23166	350.7	0
16	23166	350.8	0
16	23166	350.9	0
16	23166	351	0
16	23166	351.1	0
16	23166	351.2	0
16	23166	351.3	0
16	23166	351.4	0
16	23166	351.5	0
16	23166	351.6	0
16	23166	351.7	0
16	23166	351.8	0
16	23166	351.9	0
16	23166	352	0
16	23166	352.1	0
16	23166	352.2	0
16	23166	352.3	0
16	23166	352.4	0
16	23166	352.5	0
16	23166	352.6	0
16	23166	352.7	0
16	23166	352.8	0
16	23166	352.9	0
16	23166	353	0
16	23166	353.1	0
16	23166	353.2	0
16	23166	353.3	0
16	23166	353.4	0
16	23166	353.5	0
16	23166	353.6	0
16	23166	353.7	0
16	23166	353.8	0
16	23166	353.9	0
16	23166	354	0
16	23166	354.1	0
16	23166	354.2	0
16	23166	354.3	0
16	23166	354.4	0
16	23166	354.5	0
16	23166	354.6	0
16	23166	354.7	0
16	23166	354.8	0
16	23166	354.9	0
16	23166	355	0
16	23166	355.1	0
16	23166	355.2	0
16	23166	355.3	0
16	23166	355.4	0
16	23166	355.5	0
16	23166	355.6	0
16	23166	355.7	0
16	23166	355.8	0
16	23166	355.9	0
16	23166	356	0
16	23166	356.1	0
16	23166	356.2	0
16	23166	356.3	0
16	23166	356.4	0
16	23166	356.5	0
16	23166	356.6	0
16	23166	356.7	0
16	23166	356.8	0
16	23166	356.9	0
16	23166	357	0
16	23166	357.1	0
16	23166	357.2	0
16	23166	357.3	0
16	23166	357.4	0
16	23166	357.5	0
16	23166	357.6	0
16	23166	357.7	0
16	23166	357.8	0
16	23166	357.9	0
16	23166	358	0
16	23166	358.1	0
16	23166	358.2	0
16	23166	358.3	0
16	23166	358.4	0
16	23166	358.5	0
16	23166	358.6	0
16	23166	358.7	0
16	23166	358.8	0
16	23166	358.9	0
16	23166	359	0
16	23166	359.1	0
16	23166	359.2	0
16	23166	359.3	0
16	23166	359.4	0
16	23166	359.5	0
16	23166	359.6	0
16	23166	359.7	0
16	23166	359.8	0
16	23166	359.9	0
16	23166	360	0
16	23166	360.1	0
16	23166	360.2	0
16	23166	360.3	0
16	23166	360.4	0
16	23166	360.5	0
16	23166	360.6	0
16	23166	360.7	0
16	23166	360.8	0
16	23166	360.9	0
16	23166	361	0
16	23166	361.1	0
16	23166	361.2	0
16	23166	361.3	0
16	23166	361.4	0
16	23166	361.5	0
16	23166	361.6	0
16	23166	361.7	0
16	23166	361.8	0
16	23166	361.9	0
16	23166	362	0
16	23166	362.1	0
16	23166	362.2	0
16	23166	362.3	0
16	23166	362.4	0
16	23166	362.5	0
16	23166	362.6	0
16	23166	362.7	0
16	23166	362.8	0
16	23166	362.9	0
16	23166	363	0
16	23166	363.1	0
16	23166	363.2	0
16	23166	363.3	0
16	23166	363.4	0
16	23166	363.5	0
16	23166	363.6	0
16	23166	363.7	0
16	23166	363.8	0
16	23166	363.9	0
16	23166	364	0
16	23166	364.1	0
16	23166	364.2	0
16	23166	364.3	0
16	23166	364.4	0
16	23166	364.5	0
16	23166	364.6	0
16	23166	364.7	0
16	23166	364.8	0
16	23166	364.9	0
16	23166	365	0
16	23166	365.1	0
16	23166	365.2	0
16	23166	365.3	0
16	23166	365.4	0
16	23166	365.5	0
16	23166	365.6	0
16	23166	365.7	0
16	23166	365.8	0
16	23166	365.9	0
16	23166	366	0
16	23166	366.1	0
16	23166	366.2	0
16	23166	366.3	0
16	23166	366.4	0
16	23166	366.5	0
16	23166	366.6	0
16	23166	366.7	0
16	23166	366.8	0
16	23166	366.9	0
16	23166	367	0
16	23166	367.1	0
16	23166	367.2	0
16	23166	367.3	0
16	23166	367.4	0
16	23166	367.5	0
16	23166	367.6	0
16	23166	367.7	0
16	23166	367.8	0
16	23166	367.9	0
16	23166	368	0
16	23166	368.1	0
16	23166	368.2	0
16	23166	368.3	0
16	23166	368.4	0
16	23166	368.5	0
16	23166	368.6	0
16	23166	368.7	0
16	23166	368.8	0
16	23166	368.9	0
16	23166	369	0
16	23166	369.1	0
16	23166	369.2	0
16	23166	369.3	0
16	23166	369.4	0
16	23166	369.5	0
16	23166	369.6	0
16	23166	369.7	0
16	23166	369.8	0
16	23166	369.9	0
16	23166	370	0
16	23166	370.1	0
16	23166	370.2	0
16	23166	370.3	0
16	23166	370.4	0
16	23166	370.5	0
16	23166	370.6	0
16	23166	370.7	0
16	23166	370.8	0
16	23166	370.9	0
16	23166	371	0
16	23166	371.1	0
16	23166	371.2	0
16	23166	371.3	0
16	23166	371.4	0
16	23166	371.5	0
16	23166	371.6	0
16	23166	371.7	0
16	23166	371.8	0
16	23166	371.9	0
16	23166	372	0
16	23166	372.1	0
16	23166	372.2	0
16	23166	372.3	0
16	23166	372.4	0
16	23166	372.5	0
16	23166	372.6	0
16	23166	372.7	0
16	23166	372.8	0
16	23166	372.9	0
16	23166	373	0
16	23166	373.1	0
16	23166	373.2	0
16	23166	373.3	0
16	23166	373.4	0
16	23166	373.5	0
16	23166	373.6	0
16	23166	373.7	0
16	23166	373.8	0
16	23166	373.9	0
16	23166	374	0
16	23166	374.1	0
16	23166	374.2	0
16	23166	374.3	0
16	23166	374.4	0
16	23166	374.5	0
16	23166	374.6	0
16	23166	374.7	0
16	23166	374.8	0
16	23166	374.9	0
16	23166	375	0
16	23166	375.1	0
16	23166	375.2	0
16	23166	375.3	0
16	23166	375.4	0
16	23166	375.5	0
16	23166	375.6	0
16	23166	375.7	0
16	23166	375.8	0
16	23166	375.9	0
16	23166	376	0
16	23166	376.1	0
16	23166	376.2	0
16	23166	376.3	0
16	23166	376.4	0
16	23166	376.5	0
16	23166	376.6	0
16	23166	376.7	0
16	23166	376.8	0
16	23166	376.9	0
16	23166	377	0
16	23166	377.1	0
16	23166	377.2	0
16	23166	377.3	0
16	23166	377.4	0
16	23166	377.5	0
16	23166	377.6	0
16	23166	377.7	0
16	23166	377.8	0
16	23166	377.9	0
16	23166	378	0
16	23166	378.1	0
16	23166	378.2	0
16	23166	378.3	0
16	23166	378.4	0
16	23166	378.5	0
16	23166	378.6	0
16	23166	378.7	0
16	23166	378.8	0
16	23166	378.9	0
16	23166	379	0
16	23166	379.1	0
16	23166	379.2	0
16	23166	379.3	0
16	23166	379.4	0
16	23166	379.5	0
16	23166	379.6	0
16	23166	379.7	0
16	23166	379.8	0
16	23166	379.9	0
16	23166	380	0
16	23166	380.1	0
16	23166	380.2	0
16	23166	380.3	0
16	23166	380.4	0
16	23166	380.5	0
16	23166	380.6	0
16	23166	380.7	0
16	23166	380.8	0
16	23166	380.9	0
16	23166	381	0
16	23166	381.1	0
16	23166	381.2	0
16	23166	381.3	0
16	23166	381.4	0
16	23166	381.5	0
16	23166	381.6	0
16	23166	381.7	0
16	23166	381.8	0
16	23166	381.9	0
16	23166	382	0
16	23166	382.1	0
16	23166	382.2	0
16	23166	382.3	0
16	23166	382.4	0
16	23166	382.5	0
16	23166	382.6	0
16	23166	382.7	0
16	23166	382.8	0
16	23166	382.9	0
16	23166	383	0
16	23166	383.1	0
16	23166	383.2	0
16	23166	383.3	0
16	23166	383.4	0
16	23166	383.5	0
16	23166	383.6	0
16	23166	383.7	0
16	23166	383.8	0
16	23166	383.9	0
16	23166	384	0
16	23166	384.1	0
16	23166	384.2	0
16	23166	384.3	0
16	23166	384.4	0
16	23166	384.5	0
16	23166	384.6	0
16	23166	384.7	0
16	23166	384.8	0
16	23166	384.9	0
16	23166	385	0
16	23166	385.1	0
16	23166	385.2	0
16	23166	385.3	0
16	23166	385.4	0
16	23166	385.5	0
16	23166	385.6	0
16	23166	385.7	0
16	23166	385.8	0
16	23166	385.9	0
16	23166	386	0
16	23166	386.1	0
16	23166	386.2	0
16	23166	386.3	0
16	23166	386.4	0
16	23166	386.5	0
16	23166	386.6	0
16	23166	386.7	0
16	23166	386.8	0
16	23166	386.9	0
16	23166	387	0
16	23166	387.1	0
16	23166	387.2	0
16	23166	387.3	0
16	23166	387.4	0
16	23166	387.5	0
16	23166	387.6	0
16	23166	387.7	0
16	23166	387.8	0
16	23166	387.9	0
16	23166	388	0
16	23166	388.1	0
16	23166	388.2	0
16	23166	388.3	0
16	23166	388.4	0
16	23166	388.5	0
16	23166	388.6	0
16	23166	388.7	0
16	23166	388.8	0
16	23166	388.9	0
16	23166	389	0
16	23166	389.1	0
16	23166	389.2	0
16	23166	389.3	0
16	23166	389.4	0
16	23166	389.5	0
16	23166	389.6	0
16	23166	389.7	0
16	23166	389.8	0
16	23166	389.9	0
16	23166	390	0
16	23166	390.1	0
16	23166	390.2	0
16	23166	390.3	0
16	23166	390.4	0
16	23166	390.5	0
16	23166	390.6	0
16	23166	390.7	0
16	23166	390.8	0
16	23166	390.9	0
16	23166	391	0
16	23166	391.1	0
16	23166	391.2	0
16	23166	391.3	0
16	23166	391.4	0
16	23166	391.5	0
16	23166	391.6	0
16	23166	391.7	0
16	23166	391.8	0
16	23166	391.9	0
16	23166	392	0
16	23166	392.1	0
16	23166	392.2	0
16	23166	392.3	0
16	23166	392.4	0
16	23166	392.5	0
16	23166	392.6	0
16	23166	392.7	0
16	23166	392.8	0
16	23166	392.9	0
16	23166	393	0
16	23166	393.1	0
16	23166	393.2	0
16	23166	393.3	0
16	23166	393.4	0
16	23166	393.5	0
16	23166	393.6	0
16	23166	393.7	0
16	23166	393.8	0
16	23166	393.9	0
16	23166	394	0
16	23166	394.1	0
16	23166	394.2	0
16	23166	394.3	0
16	23166	394.4	0
16	23166	394.5	0
16	23166	394.6	0
16	23166	394.7	0
16	23166	394.8	0
16	23166	394.9	0
16	23166	395	0
16	23166	395.1	0
16	23166	395.2	0
16	23166	395.3	0
16	23166	395.4	0
16	23166	395.5	0
16	23166	395.6	0
16	23166	395.7	0
16	23166	395.8	0
16	23166	395.9	0
16	23166	396	0
16	23166	396.1	0
16	23166	396.2	0
16	23166	396.3	0
16	23166	396.4	0
16	23166	396.5	0
16	23166	396.6	0
16	23166	396.7	0
16	23166	396.8	0
16	23166	396.9	0
16	23166	397	0
16	23166	397.1	0
16	23166	397.2	0
16	23166	397.3	0
16	23166	397.4	0
16	23166	397.5	0
16	23166	397.6	0
16	23166	397.7	0
16	23166	397.8	0
16	23166	397.9	0
16	23166	398	0
16	23166	398.1	0
16	23166	398.2	0
16	23166	398.3	0
16	23166	398.4	0
16	23166	398.5	0
16	23166	398.6	0
16	23166	398.7	0
16	23166	398.8	0
16	23166	398.9	0
16	23166	399	0
16	23166	399.1	0
16	23166	399.2	0
16	23166	399.3	0
16	23166	399.4	0
16	23166	399.5	0
16	23166	399.6	0
16	23166	399.7	0
16	23166	399.8	0
16	23166	399.9	0
16	23166	400	0
16	23166	400.1	0
16	23166	400.2	0
16	23166	400.3	0
16	23166	400.4	0
16	23166	400.5	0
16	23166	400.6	0
16	23166	400.7	0
16	23166	400.8	0
16	23166	400.9	0
16	23166	401	0
16	23166	401.1	0
16	23166	401.2	0
16	23166	401.3	0
16	23166	401.4	0
16	23166	401.5	0
16	23166	401.6	0
16	23166	401.7	0
16	23166	401.8	0
16	23166	401.9	0
16	23166	402	0
16	23166	402.1	0
16	23166	402.2	0
16	23166	402.3	0
16	23166	402.4	0
16	23166	402.5	0
16	23166	402.6	0
16	23166	402.7	0
16	23166	402.8	0
16	23166	402.9	0
16	23166	403	0
16	23166	403.1	0
16	23166	403.2	0
16	23166	403.3	0
16	23166	403.4	0
16	23166	403.5	0
16	23166	403.6	0
16	23166	403.7	0
16	23166	403.8	0
16	23166	403.9	0
16	23166	404	0
16	23166	404.1	0
16	23166	404.2	0
16	23166	404.3	0
16	23166	404.4	0
16	23166	404.5	0
16	23166	404.6	0
16	23166	404.7	0
16	23166	404.8	0
16	23166	404.9	0
16	23166	405	0
16	23166	405.1	0
16	23166	405.2	0
16	23166	405.3	0
16	23166	405.4	0
16	23166	405.5	0
16	23166	405.6	0
16	23166	405.7	0
16	23166	405.8	0
16	23166	405.9	0
16	23166	406	0
16	23166	406.1	0
16	23166	406.2	0
16	23166	406.3	0
16	23166	406.4	0
16	23166	406.5	0
16	23166	406.6	0
16	23166	406.7	0
16	23166	406.8	0
16	23166	406.9	0
16	23166	407	0
16	23166	407.1	0
16	23166	407.2	0
16	23166	407.3	0
16	23166	407.4	0
16	23166	407.5	0
16	23166	407.6	0
16	23166	407.7	0
16	23166	407.8	0
16	23166	407.9	0
16	23166	408	0
16	23166	408.1	0
16	23166	408.2	0
16	23166	408.3	0
16	23166	408.4	0
16	23166	408.5	0
16	23166	408.6	0
16	23166	408.7	0
16	23166	408.8	0
16	23166	408.9	0
16	23166	409	0
16	23166	409.1	0
16	23166	409.2	0
16	23166	409.3	0
16	23166	409.4	0
16	23166	409.5	0
16	23166	409.6	0
16	23166	409.7	0
16	23166	409.8	0
16	23166	409.9	0
16	23166	410	0
16	23166	410.1	0
16	23166	410.2	0
16	23166	410.3	0
16	23166	410.4	0
16	23166	410.5	0
16	23166	410.6	0
16	23166	410.7	0
16	23166	410.8	0
16	23166	410.9	0
16	23166	411	0
16	23166	411.1	0
16	23166	411.2	0
16	23166	411.3	0
16	23166	411.4	0
16	23166	411.5	0
16	23166	411.6	0
16	23166	411.7	0
16	23166	411.8	0
16	23166	411.9	0
16	23166	412	0
16	23166	412.1	0
16	23166	412.2	0
16	23166	412.3	0
16	23166	412.4	0
16	23166	412.5	0
16	23166	412.6	0
16	23166	412.7	0
16	23166	412.8	0
16	23166	412.9	0
16	23166	413	0
16	23166	413.1	0
16	23166	413.2	0
16	23166	413.3	0
16	23166	413.4	0
16	23166	413.5	0
16	23166	413.6	0
16	23166	413.7	0
16	23166	413.8	0
16	23166	413.9	0
16	23166	414	0
16	23166	414.1	0
16	23166	414.2	0
[...]
21	23166	467.4	0
21	23166	467.5	0
21	23166	467.6	0
21	23166	467.7	0
21	23166	467.8	0
21	23166	467.9	0
21	23166	468	0
21	23166	468.1	0
21	23166	468.2	0
21	23166	468.3	0
21	23166	468.4	0
21	23166	468.5	0
21	23166	468.6	0
21	23166	468.7	0
21	23166	468.8	0
21	23166	468.9	0
21	23166	469	0
21	23166	469.1	0
21	23166	469.2	0
21	23166	469.3	0
21	23166	469.4	0
21	23166	469.5	0
21	23166	469.6	0
21	23166	469.7	0
21	23166	469.8	0
21	23166	469.9	0
21	23166	470	0
21	23166	470.1	0
21	23166	470.2	0
21	23166	470.3	0
21	23166	470.4	0
21	23166	470.5	0
21	23166	470.6	0
21	23166	470.7	0
21	23166	470.8	0
21	23166	470.9	0
21	23166	471	0
21	23166	471.1	0
21	23166	471.2	0
21	23166	471.3	0
21	23166	471.4	0
21	23166	471.5	0
21	23166	471.6	0
21	23166	471.7	0
21	23166	471.8	0
21	23166	471.9	0
21	23166	472	0
21	23166	472.1	0
21	23166	472.2	0
21	23166	472.3	0
21	23166	472.4	0
21	23166	472.5	0
21	23166	472.6	0
21	23166	472.7	0
21	23166	472.8	0
21	23166	472.9	0
21	23166	473	0
21	23166	473.1	0
21	23166	473.2	0
21	23166	473.3	0
21	23166	473.4	0
21	23166	473.5	0
21	23166	473.6	0
21	23166	473.7	0
21	23166	473.8	0
21	23166	473.9	0
21	23166	474	0
21	23166	474.1	0
21	23166	474.2	0
21	23166	474.3	0
21	23166	474.4	0
21	23166	474.5	0
21	23166	474.6	0
21	23166	474.7	0
21	23166	474.8	0
21	23166	474.9	0
21	23166	475	0
21	23166	475.1	0
21	23166	475.2	0
21	23166	475.3	0
21	23166	475.4	0
21	23166	475.5	0
21	23166	475.6	0
21	23166	475.7	0
21	23166	475.8	0
21	23166	475.9	0
21	23166	476	0
21	23166	476.1	0
21	23166	476.2	0
21	23166	476.3	0
21	23166	476.4	0
21	23166	476.5	0
21	23166	476.6	0
21	23166	476.7	0
21	23166	476.8	0
21	23166	476.9	0
21	23166	477	0
21	23166	477.1	0
21	23166	477.2	0
21	23166	477.3	0
21	23166	477.4	0
21	23166	477.5	0
21	23166	477.6	0
21	23166	477.7	0
21	23166	477.8	0
21	23166	477.9	0
21	23166	478	0
21	23166	478.1	0
21	23166	478.2	0
21	23166	478.3	0
21	23166	478.4	0
21	23166	478.5	0
21	23166	478.6	0
21	23166	478.7	0
21	23166	478.8	0
21	23166	478.9	0
21	23166	479	0
21	23166	479.1	0
21	23166	479.2	0
21	23166	479.3	0
21	23166	479.4	0
21	23166	479.5	0
21	23166	479.6	0
21	23166	479.7	0
21	23166	479.8	0
21	23166	479.9	0
21	23166	480	0
21	23166	480.1	0
21	23166	480.2	0
21	23166	480.3	0
21	23166	480.4	0
21	23166	480.5	0
21	23166	480.6	0
21	23166	480.7	0
21	23166	480.8	0
21	23166	480.9	0
21	23166	481	0
21	23166	481.1	0
21	23166	481.2	0
21	23166	481.3	0
21	23166	481.4	0
21	23166	481.5	0
21	23166	481.6	0
21	23166	481.7	0
21	23166	481.8	0
21	23166	481.9	0
21	23166	482	0
21	23166	482.1	0
21	23166	482.2	0
21	23166	482.3	0
21	23166	482.4	0
21	23166	482.5	0
21	23166	482.6	0
21	23166	482.7	0
21	23166	482.8	0
21	23166	482.9	0
21	23166	483	0
21	23166	483.1	0
21	23166	483.2	0
21	23166	483.3	0
21	23166	483.4	0
21	23166	483.5	0
21	23166	483.6	0
21	23166	483.7	0
21	23166	483.8	0
21	23166	483.9	0
21	23166	484	0
21	23166	484.1	0
21	23166	484.2	0
21	23166	484.3	0
21	23166	484.4	0
21	23166	484.5	0
21	23166	484.6	0
21	23166	484.7	0
21	23166	484.8	0
21	23166	484.9	0
21	23166	485	0
21	23166	485.1	0
21	23166	485.2	0
21	23166	485.3	0
21	23166	485.4	0
21	23166	485.5	0
21	23166	485.6	0
21	23166	485.7	0
21	23166	485.8	0
21	23166	485.9	0
21	23166	486	0
21	23166	486.1	0
21	23166	486.2	0
21	23166	486.3	0
21	23166	486.4	0
21	23166	486.5	0
21	23166	486.6	0
21	23166	486.7	0
21	23166	486.8	0
21	23166	486.9	0
21	23166	487	0
21	23166	487.1	0
21	23166	487.2	0
21	23166	487.3	0
21	23166	487.4	0
21	23166	487.5	0
21	23166	487.6	0
21	23166	487.7	0
21	23166	487.8	0
21	23166	487.9	0
21	23166	488	0
21	23166	488.1	0
21	23166	488.2	0
21	23166	488.3	0
21	23166	488.4	0
21	23166	488.5	0
21	23166	488.6	0
21	23166	488.7	0
21	23166	488.8	0
21	23166	488.9	0
21	23166	489	0
21	23166	489.1	0
21	23166	489.2	0
21	23166	489.3	0
21	23166	489.4	0
21	23166	489.5	0
21	23166	489.6	0
21	23166	489.7	0
21	23166	489.8	0
21	23166	489.9	0
21	23166	490	0
21	23166	490.1	0
21	23166	490.2	0
21	23166	490.3	0
21	23166	490.4	0
21	23166	490.5	0
21	23166	490.6	0
21	23166	490.7	0
21	23166	490.8	0
21	23166	490.9	0
21	23166	491	0
21	23166	491.1	0
21	23166	491.2	0
21	23166	491.3	0
21	23166	491.4	0
21	23166	491.5	0
21	23166	491.6	0
21	23166	491.7	0
21	23166	491.8	0
21	23166	491.9	0
21	23166	492	0
21	23166	492.1	0
21	23166	492.2	0
21	23166	492.3	0
21	23166	492.4	0
21	23166	492.5	0
21	23166	492.6	0
21	23166	492.7	0
21	23166	492.8	0
21	23166	492.9	0
21	23166	493	0
21	23166	493.1	0
21	23166	493.2	0
21	23166	493.3	0
21	23166	493.4	0
21	23166	493.5	0
21	23166	493.6	0
21	23166	493.7	0
21	23166	493.8	0
21	23166	493.9	0
21	23166	494	0
21	23166	494.1	0
21	23166	494.2	0
21	23166	494.3	0
21	23166	494.4	0
21	23166	494.5	0
21	23166	494.6	0
21	23166	494.7	0
21	23166	494.8	0
21	23166	494.9	0
21	23166	495	0
21	23166	495.1	0
21	23166	495.2	0
21	23166	495.3	0
21	23166	495.4	0
21	23166	495.5	0
21	23166	495.6	0
21	23166	495.7	0
21	23166	495.8	0
21	23166	495.9	0
21	23166	496	0
21	23166	496.1	0
21	23166	496.2	0
21	23166	496.3	0
21	23166	496.4	0
21	23166	496.5	0
21	23166	496.6	0
21	23166	496.7	0
21	23166	496.8	0
21	23166	496.9	0
21	23166	497	0
21	23166	497.1	0
21	23166	497.2	0
21	23166	497.3	0
21	23166	497.4	0
21	23166	497.5	0
21	23166	497.6	0
21	23166	497.7	0
21	23166	497.8	0
21	23166	497.9	0
21	23166	498	0
21	23166	498.1	0
21	23166	498.2	0
21	23166	498.3	0
21	23166	498.4	0
21	23166	498.5	0
21	23166	498.6	0
21	23166	498.7	0
21	23166	498.8	0
21	23166	498.9	0
21	23166	499	0
21	23166	499.1	0
21	23166	499.2	0
21	23166	499.3	0
21	23166	499.4	0
21	23166	499.5	0
21	23166	499.6	0
21	23166	499.7	0
21	23166	499.8	0
21	23166	499.9	0
21	23166	500	0
21	23166	500.1	0
21	23166	500.2	0
21	23166	500.3	0
21	23166	500.4	0
21	23166	500.5	0
21	23166	500.6	0
21	23166	500.7	0
21	23166	500.8	0
21	23166	500.9	0
21	23166	501	0
21	23166	501.1	0
21	23166	501.2	0
21	23166	501.3	0
21	23166	501.4	0
21	23166	501.5	0
21	23166	501.6	0
21	23166	501.7	0
21	23166	501.8	0
21	23166	501.9	0
21	23166	502	0
21	23166	502.1	0
21	23166	502.2	0
21	23166	502.3	0
21	23166	502.4	0
21	23166	502.5	0
21	23166	502.6	0
21	23166	502.7	0
21	23166	502.8	0
21	23166	502.9	0
21	23166	503	0
21	23166	503.1	0
21	23166	503.2	0
21	23166	503.3	0
21	23166	503.4	0
21	23166	503.5	0
21	23166	503.6	0
21	23166	503.7	0
21	23166	503.8	0
21	23166	503.9	0
21	23166	504	0
21	23166	504.1	0
21	23166	504.2	0
21	23166	504.3	0
21	23166	504.4	0
21	23166	504.5	0
21	23166	504.6	0
21	23166	504.7	0
21	23166	504.8	0
21	23166	504.9	0
21	23166	505	0
21	23166	505.1	0
21	23166	505.2	0
21	23166	505.3	0
21	23166	505.4	0
21	23166	505.5	0
21	23166	505.6	0
21	23166	505.7	0
21	23166	505.8	0
21	23166	505.9	0
21	23166	506	0
21	23166	506.1	0
21	23166	506.2	0
21	23166	506.3	0
21	23166	506.4	0
21	23166	506.5	0
21	23166	506.6	0
21	23166	506.7	0
21	23166	506.8	0
21	23166	506.9	0
21	23166	507	0
21	23166	507.1	0
21	23166	507.2	0
21	23166	507.3	0
21	23166	507.4	0
21	23166	507.5	0
21	23166	507.6	0
21	23166	507.7	0
21	23166	507.8	0
21	23166	507.9	0
21	23166	508	0
21	23166	508.1	0
21	23166	508.2	0
21	23166	508.3	0
21	23166	508.4	0
21	23166	508.5	0
21	23166	508.6	0
21	23166	508.7	0
21	23166	508.8	0
21	23166	508.9	0
21	23166	509	0
21	23166	509.1	0
21	23166	509.2	0
21	23166	509.3	0
21	23166	509.4	0
21	23166	509.5	0
21	23166	509.6	0
21	23166	509.7	0
21	23166	509.8	0
21	23166	509.9	0
21	23166	510	0
21	23166	510.1	0
21	23166	510.2	0
21	23166	510.3	0
21	23166	510.4	0
21	23166	510.5	0
21	23166	510.6	0
21	23166	510.7	0
21	23166	510.8	0
21	23166	510.9	0
21	23166	511	0
21	23166	511.1	0
21	23166	511.2	0
21	23166	511.3	0
21	23166	511.4	0
21	23166	511.5	0
21	23166	511.6	0
21	23166	511.7	0
21	23166	511.8	0
21	23166	511.9	0
21	23166	512	0
21	23166	512.1	0
21	23166	512.2	0
21	23166	512.3	0
21	23166	512.4	0
21	23166	512.5	0
21	23166	512.6	0
21	23166	512.7	0
21	23166	512.8	0
21	23166	512.9	0
21	23166	513	0
21	23166	513.1	0
21	23166	513.2	0
21	23166	513.3	0
21	23166	513.4	0
21	23166	513.5	0
21	23166	513.6	0
21	23166	513.7	0
21	23166	513.8	0
21	23166	513.9	0
21	23166	514	0
21	23166	514.1	0
21	23166	514.2	0
21	23166	514.3	0
21	23166	514.4	0
21	23166	514.5	0
21	23166	514.6	0
21	23166	514.7	0
21	23166	514.8	0
21	23166	514.9	0
21	23166	515	0
21	23166	515.1	0
21	23166	515.2	0
21	23166	515.3	0
21	23166	515.4	0
21	23166	515.5	0
21	23166	515.6	0
21	23166	515.7	0
21	23166	515.8	0
21	23166	515.9	0
21	23166	516	0
21	23166	516.1	0
21	23166	516.2	0
21	23166	516.3	0
21	23166	516.4	0
21	23166	516.5	0
21	23166	516.6	0
21	23166	516.7	0
21	23166	516.8	0
21	23166	516.9	0
21	23166	517	0
21	23166	517.1	0
21	23166	517.2	0
21	23166	517.3	0
21	23166	517.4	0
21	23166	517.5	0
21	23166	517.6	0
21	23166	517.7	0
21	23166	517.8	0
21	23166	517.9	0
21	23166	518	0
21	23166	518.1	0
21	23166	518.2	0
21	23166	518.3	0
21	23166	518.4	0
21	23166	518.5	0
21	23166	518.6	0
21	23166	518.7	0
21	23166	518.8	0
21	23166	518.9	0
21	23166	519	0
21	23166	519.1	0
21	23166	519.2	0
21	23166	519.3	0
21	23166	519.4	0
21	23166	519.5	0
21	23166	519.6	0
21	23166	519.7	0
21	23166	519.8	0
21	23166	519.9	0
21	23166	520	0
21	23166	520.1	0
21	23166	520.2	0
21	23166	520.3	0
21	23166	520.4	0
21	23166	520.5	0
21	23166	520.6	0
21	23166	520.7	0
21	23166	520.8	0
21	23166	520.9	0
21	23166	521	0
21	23166	521.1	0
21	23166	521.2	0
21	23166	521.3	0
21	23166	521.4	0
21	23166	521.5	0
21	23166	521.6	0
21	23166	521.7	0
21	23166	521.8	0
21	23166	521.9	0
21	23166	522	0
21	23166	522.1	0
21	23166	522.2	0
21	23166	522.3	0
21	23166	522.4	0
21	23166	522.5	0
21	23166	522.6	0
21	23166	522.7	0
21	23166	522.8	0
21	23166	522.9	0
21	23166	523	0
21	23166	523.1	0
21	23166	523.2	0
21	23166	523.3	0
21	23166	523.4	0
21	23166	523.5	0
21	23166	523.6	0
21	23166	523.7	0
21	23166	523.8	0
21	23166	523.9	0
21	23166	524	0
21	23166	524.1	0
21	23166	524.2	0
21	23166	524.3	0
21	23166	524.4	0
21	23166	524.5	0
21	23166	524.6	0
21	23166	524.7	0
21	23166	524.8	0
21	23166	524.9	0
21	23166	525	0
21	23166	525.1	0
21	23166	525.2	0
21	23166	525.3	0
21	23166	525.4	0
21	23166	525.5	0
21	23166	525.6	0
21	23166	525.7	0
21	23166	525.8	0
21	23166	525.9	0
21	23166	526	0
21	23166	526.1	0
21	23166	526.2	0
21	23166	526.3	0
21	23166	526.4	0
21	23166	526.5	0
21	23166	526.6	0
21	23166	526.7	0
21	23166	526.8	0
21	23166	526.9	0
21	23166	527	0
21	23166	527.1	0
21	23166	527.2	0
21	23166	527.3	0
21	23166	527.4	0
21	23166	527.5	0
21	23166	527.6	0
21	23166	527.7	0
21	23166	527.8	0
21	23166	527.9	0
21	23166	528	0
21	23166	528.1	0
21	23166	528.2	0
21	23166	528.3	0
21	23166	528.4	0
21	23166	528.5	0
21	23166	528.6	0
21	23166	528.7	0
21	23166	528.8	0
21	23166	528.9	0
21	23166	529	0
21	23166	529.1	0
21	23166	529.2	0
21	23166	529.3	0
21	23166	529.4	0
21	23166	529.5	0
21	23166	529.6	0
21	23166	529.7	0
21	23166	529.8	0
21	23166	529.9	0
21	23166	530	0
21	23166	530.1	0
21	23166	530.2	0
21	23166	530.3	0
21	23166	530.4	0
21	23166	530.5	0
21	23166	530.6	0
21	23166	530.7	0
21	23166	530.8	0
21	23166	530.9	0
21	23166	531	0
21	23166	531.1	0
21	23166	531.2	0
21	23166	531.3	0
21	23166	531.4	0
21	23166	531.5	0
21	23166	531.6	0
21	23166	531.7	0
21	23166	531.8	0
21	23166	531.9	0
21	23166	532	0
21	23166	532.1	0
21	23166	532.2	0
21	23166	532.3	0
21	23166	532.4	0
21	23166	532.5	0
21	23166	532.6	0
21	23166	532.7	0
21	23166	532.8	0
21	23166	532.9	0
21	23166	533	0
21	23166	533.1	0
21	23166	533.2	0
21	23166	533.3	0
21	23166	533.4	0
21	23166	533.5	0
21	23166	533.6	0
21	23166	533.7	0
21	23166	533.8	0
21	23166	533.9	0
21	23166	534	0
21	23166	534.1	0
21	23166	534.2	0
21	23166	534.3	0
21	23166	534.4	0
21	23166	534.5	0
21	23166	534.6	0
21	23166	534.7	0
21	23166	534.8	0
21	23166	534.9	0
21	23166	535	0
21	23166	535.1	0
21	23166	535.2	0
21	23166	535.3	0
21	23166	535.4	0
21	23166	535.5	0
21	23166	535.6	0
21	23166	535.7	0
21	23166	535.8	0
21	23166	535.9	0
21	23166	536	0
21	23166	536.1	0
21	23166	536.2	0
21	23166	536.3	0
21	23166	536.4	0
21	23166	536.5	0
21	23166	536.6	0
21	23166	536.7	0
21	23166	536.8	0
21	23166	536.9	0
21	23166	537	0
21	23166	537.1	0
21	23166	537.2	0
21	23166	537.3	0
21	23166	537.4	0
21	23166	537.5	0
21	23166	537.6	0
21	23166	537.7	0
21	23166	537.8	0
21	23166	537.9	0
21	23166	538	0
21	23166	538.1	0
21	23166	538.2	0
21	23166	538.3	0
21	23166	538.4	0
21	23166	538.5	0
21	23166	538.6	0
21	23166	538.7	0
21	23166	538.8	0
21	23166	538.9	0
21	23166	539	0
21	23166	539.1	0
21	23166	539.2	0
21	23166	539.3	0
21	23166	539.4	0
21	23166	539.5	0
21	23166	539.6	0
21	23166	539.7	0
21	23166	539.8	0
21	23166	539.9	0
21	23166	540	0
21	23166	540.1	0
21	23166	540.2	0
21	23166	540.3	0
21	23166	540.4	0
21	23166	540.5	0
21	23166	540.6	0
21	23166	540.7	0
21	23166	540.8	0
21	23166	540.9	0
21	23166	541	0
21	23166	541.1	0
21	23166	541.2	0
21	23166	541.3	0
21	23166	541.4	0
21	23166	541.5	0
21	23166	541.6	0
21	23166	541.7	0
21	23166	541.8	0
21	23166	541.9	0
21	23166	542	0
21	23166	542.1	0
21	23166	542.2	0
21	23166	542.3	0
21	23166	542.4	0
21	23166	542.5	0
21	23166	542.6	0
21	23166	542.7	0
21	23166	542.8	0
21	23166	542.9	0
21	23166	543	0
21	23166	543.1	0
21	23166	543.2	0
21	23166	543.3	0
21	23166	543.4	0
21	23166	543.5	0
21	23166	543.6	0
21	23166	543.7	0
21	23166	543.8	0
21	23166	543.9	0
21	23166	544	0
21	23166	544.1	0
21	23166	544.2	0
21	23166	544.3	0
21	23166	544.4	0
21	23166	544.5	0
21	23166	544.6	0
21	23166	544.7	0
21	23166	544.8	0
21	23166	544.9	0
21	23166	545	0
21	23166	545.1	0
21	23166	545.2	0
21	23166	545.3	0
21	23166	545.4	0
21	23166	545.5	0
21	23166	545.6	0
21	23166	545.7	0
21	23166	545.8	0
21	23166	545.9	0
21	23166	546	0
21	23166	546.1	0
21	23166	546.2	0
21	23166	546.3	0
21	23166	546.4	0
21	23166	546.5	0
21	23166	546.6	0
21	23166	546.7	0
21	23166	546.8	0
21	23166	546.9	0
21	23166	547	0
21	23166	547.1	0
21	23166	547.2	0
21	23166	547.3	0
21	23166	547.4	0
21	23166	547.5	0
21	23166	547.6	0
21	23166	547.7	0
21	23166	547.8	0
21	23166	547.9	0
21	23166	548	0
21	23166	548.1	0
21	23166	548.2	0
21	23166	548.3	0
21	23166	548.4	0
21	23166	548.5	0
21	23166	548.6	0
21	23166	548.7	0
21	23166	548.8	0
21	23166	548.9	0
21	23166	549	0
21	23166	549.1	0
21	23166	549.2	0
21	23166	549.3	0
21	23166	549.4	0
21	23166	549.5	0
21	23166	549.6	0
21	23166	549.7	0
21	23166	549.8	0
21	23166	549.9	0
21	23166	550	0
21	23166	550.1	0
21	23166	550.2	0
21	23166	550.3	0
21	23166	550.4	0
21	23166	550.5	0
21	23166	550.6	0
21	23166	550.7	0
21	23166	550.8	0
21	23166	550.9	0
21	23166	551	0
21	23166	551.1	0
21	23166	551.2	0
21	23166	551.3	0
21	23166	551.4	0
21	23166	551.5	0
21	23166	551.6	0
21	23166	551.7	0
21	23166	551.8	0
21	23166	551.9	0
21	23166	552	0
21	23166	552.1	0
21	23166	552.2	0
21	23166	552.3	0
21	23166	552.4	0
21	23166	552.5	0
21	23166	552.6	0
21	23166	552.7	0
21	23166	552.8	0
21	23166	552.9	0
21	23166	553	0
21	23166	553.1	0
21	23166	553.2	0
21	23166	553.3	0
21	23166	553.4	0
21	23166	553.5	0
21	23166	553.6	0
21	23166	553.7	0
21	23166	553.8	0
21	23166	553.9	0
21	23166	554	0
21	23166	554.1	0
21	23166	554.2	0
21	23166	554.3	0
21	23166	554.4	0
21	23166	554.5	0
21	23166	554.6	0
21	23166	554.7	0
21	23166	554.8	0
21	23166	554.9	0
21	23166	555	0
21	23166	555.1	0
21	23166	555.2	0
21	23166	555.3	0
21	23166	555.4	0
21	23166	555.5	0
21	23166	555.6	0
21	23166	555.7	0
21	23166	555.8	0
21	23166	555.9	0
21	23166	556	0
21	23166	556.1	0
21	23166	556.2	0
21	23166	556.3	0
21	23166	556.4	0
21	23166	556.5	0
21	23166	556.6	0
21	23166	556.7	0
21	23166	556.8	0
21	23166	556.9	0
21	23166	557	0
21	23166	557.1	0
21	23166	557.2	0
21	23166	557.3	0
21	23166	557.4	0
21	23166	557.5	0
21	23166	557.6	0
21	23166	557.7	0
21	23166	557.8	0
21	23166	557.9	0
21	23166	558	0
21	23166	558.1	0
21	23166	558.2	0
21	23166	558.3	0
21	23166	558.4	0
21	23166	558.5	0
21	23166	558.6	0
21	23166	558.7	0
21	23166	558.8	0
21	23166	558.9	0
21	23166	559	0
21	23166	559.1	0
21	23166	559.2	0
21	23166	559.3	0
21	23166	559.4	0
21	23166	559.5	0
21	23166	559.6	0
21	23166	559.7	0
21	23166	559.8	0
21	23166	559.9	0
21	23166	560	0
21	23166	560.1	0
21	23166	560.2	0
21	23166	560.3	0
21	23166	560.4	0
21	23166	560.5	0
21	23166	560.6	0
21	23166	560.7	0
21	23166	560.8	0
21	23166	560.9	0
21	23166	561	0
21	23166	561.1	0
21	23166	561.2	0
21	23166	561.3	0
21	23166	561.4	0
21	23166	561.5	0
21	23166	561.6	0
21	23166	561.7	0
21	23166	561.8	0
21	23166	561.9	0
21	23166	562	0
21	23166	562.1	0
21	23166	562.2	0
21	23166	562.3	0
21	23166	562.4	0
21	23166	562.5	0
21	23166	562.6	0
21	23166	562.7	0
21	23166	562.8	0
21	23166	562.9	0
21	23166	563	0
21	23166	563.1	0
21	23166	563.2	0
21	23166	563.3	0
21	23166	563.4	0
21	23166	563.5	0
21	23166	563.6	0
21	23166	563.7	0
21	23166	563.8	0
21	23166	563.9	0
21	23166	564	0
21	23166	564.1	0
21	23166	564.2	0
21	23166	564.3	0
21	23166	564.4	0
21	23166	564.5	0
21	23166	564.6	0
21	23166	564.7	0
21	23166	564.8	0
21	23166	564.9	0
21	23166	565	0
21	23166	565.1	0
21	23166	565.2	0
21	23166	565.3	0
21	23166	565.4	0
21	23166	565.5	0
21	23166	565.6	0
21	23166	565.7	0
21	23166	565.8	0
21	23166	565.9	0
21	23166	566	0
21	23166	566.1	0
21	23166	566.2	0
21	23166	566.3	0
21	23166	566.4	0
21	23166	566.5	0
21	23166	566.6	0
21	23166	566.7	0
21	23166	566.8	0
21	23166	566.9	0
21	23166	567	0
21	23166	567.1	0
21	23166	567.2	0
21	23166	567.3	0
21	23166	567.4	0
21	23166	567.5	0
21	23166	567.6	0
21	23166	567.7	0
21	23166	567.8	0
21	23166	567.9	0
21	23166	568	0
21	23166	568.1	0
21	23166	568.2	0
21	23166	568.3	0
21	23166	568.4	0
21	23166	568.5	0
21	23166	568.6	0
21	23166	568.7	0
21	23166	568.8	0
21	23166	568.9	0
21	23166	569	0
21	23166	569.1	0
21	23166	569.2	0
21	23166	569.3	0
21	23166	569.4	0
21	23166	569.5	0
21	23166	569.6	0
21	23166	569.7	0
21	23166	569.8	0
21	23166	569.9	0
21	23166	570	0
21	23166	570.1	0
21	23166	570.2	0
21	23166	570.3	0
21	23166	570.4	0
21	23166	570.5	0
21	23166	570.6	0
21	23166	570.7	0
21	23166	570.8	0
21	23166	570.9	0
21	23166	571	0
21	23166	571.1	0
21	23166	571.2	0
21	23166	571.3	0
21	23166	571.4	0
21	23166	571.5	0
21	23166	571.6	0
21	23166	571.7	0
21	23166	571.8	0
21	23166	571.9	0
21	23166	572	0
21	23166	572.1	0
21	23166	572.2	0
21	23166	572.3	0
21	23166	572.4	0
21	23166	572.5	0
21	23166	572.6	0
21	23166	572.7	0
21	23166	572.8	0
21	23166	572.9	0
21	23166	573	0
21	23166	573.1	0
21	23166	573.2	0
21	23166	573.3	0
21	23166	573.4	0
21	23166	573.5	0
21	23166	573.6	0
21	23166	573.7	0
21	23166	573.8	0
21	23166	573.9	0
21	23166	574	0
21	23166	574.1	0
21	23166	574.2	0
21	23166	574.3	0
21	23166	574.4	0
21	23166	574.5	0
21	23166	574.6	0
21	23166	574.7	0
21	23166	574.8	0
21	23166	574.9	0
21	23166	575	0
21	23166	575.1	0
21	23166	575.2	0
21	23166	575.3	0
21	23166	575.4	0
21	23166	575.5	0
21	23166	575.6	0
21	23166	575.7	0
21	23166	575.8	0
21	23166	575.9	0
21	23166	576	0
21	23166	576.1	0
21	23166	576.2	0
21	23166	576.3	0
21	23166	576.4	0
21	23166	576.5	0
21	23166	576.6	0
21	23166	576.7	0
21	23166	576.8	0
21	23166	576.9	0
21	23166	577	0
21	23166	577.1	0
21	23166	577.2	0
21	23166	577.3	0
21	23166	577.4	0
21	23166	577.5	0
21	23166	577.6	0
21	23166	577.7	0
21	23166	577.8	0
21	23166	577.9	0
21	23166	578	0
21	23166	578.1	0
21	23166	578.2	0
21	23166	578.3	0
21	23166	578.4	0
21	23166	578.5	0
21	23166	578.6	0
21	23166	578.7	0
21	23166	578.8	0
21	23166	578.9	0
21	23166	579	0
21	23166	579.1	0
21	23166	579.2	0
21	23166	579.3	0
21	23166	579.4	0
21	23166	579.5	0
21	23166	579.6	0

