version 2
run Sim1drone1sensor-0-20210515-20:59:45-20268
attr configname Sim1drone1sensor
attr datetime 20210515-20:59:45
attr experiment Sim1drone1sensor
attr inifile mobilityDrones-omnetpp.ini
attr iterationvars ""
attr iterationvarsf ""
attr measurement ""
attr network mobilityDrones
attr processid 20268
attr repetition 0
attr replication #0
attr resultdir results
attr runnumber 0
attr seedset 0
param *.numUAVs 1
param *.drones[*].app[0].destAddresses "\"sensor1\""
param *.sensor*.app[0].destAddresses "\"drones[0]\""
param *.sensor1.mobility.initialX 450m
param *.sensor1.mobility.initialY 450m
param *.sensor1.mobility.initialZ 0m
param *.visualizer.osgVisualizer.typename "\"IntegratedOsgVisualizer\""
param *.visualizer.osgVisualizer.sceneVisualizer.typename "\"SceneOsgEarthVisualizer\""
param *.visualizer.osgVisualizer.sceneVisualizer.mapFile "\"map.earth\""
param *.visualizer.osgVisualizer.sceneVisualizer.sceneImageSize 10000m
param *.visualizer.osgVisualizer.sceneVisualizer.axisLength 500m
param *.visualizer.osgVisualizer.sceneVisualizer.sceneMinX -200m
param *.visualizer.osgVisualizer.sceneVisualizer.sceneMinY -200m
param *.visualizer.osgVisualizer.sceneVisualizer.sceneMinZ 0m
param *.visualizer.osgVisualizer.sceneVisualizer.sceneMaxX 5000m
param *.visualizer.osgVisualizer.sceneVisualizer.sceneMaxY 5000m
param *.visualizer.osgVisualizer.sceneVisualizer.sceneMaxZ 5000m
param *.visualizer.osgVisualizer.networkNodeVisualizer.displayModuleName true
param *.visualizer.*.mobilityVisualizer.displayMobility true
param *.visualizer.*.mobilityVisualizer.displayPositions true
param *.visualizer.*.mobilityVisualizer.displayOrientations true
param *.visualizer.*.mobilityVisualizer.displayVelocities true
param *.visualizer.*.mobilityVisualizer.displayMovementTrails true
param *.visualizer.*.mobilityVisualizer.animationSpeed 10
param *.visualizer.mediumVisualizer.displaySignals true
param **.constraintAreaMinX 0m
param **.constraintAreaMinY 0m
param **.constraintAreaMinZ 0m
param **.constraintAreaMaxX 5000m
param **.constraintAreaMaxY 5000m
param **.constraintAreaMaxZ 5000m
param *.drones*.wlan[0].radio.displayCommunicationRange true
param *.coordinateSystem.sceneLongitude -43.22260deg
param *.coordinateSystem.sceneLatitude -22.97556deg
param *.coordinateSystem.sceneHeading 90deg
param *.environment.ground.typename "\"FlatGround\""
param *.drones[*].osgModel "\"3d/drone.ive.100.scale.0,0,90.rot\""
param *.drones[*].mobility.typename "\"GeoWaypointMobility\""
param *.drones[*].mobility.coordinateSystemModule "\"\""
param *.drones[*].mobility.waypointFile "\"testPath.csv\""
param *.drones[*].mobility.waypointProximity 5m
param **.mobility.initFromDisplayString false
param *.drones[*].mobility.speed uniform(10mps,20mps)
param *.drones[*].numApps 2
param *.drones[*].app[0].typename "\"UdpBasicAppMobileNode\""
param *.drones[*].app[0].destPort 1000
param *.drones[*].app[0].sendInterval 1s
param *.drones[*].app[0].startTime exponential(1s)
param *.drones[*].app[0].messageLength 1454Byte
param *.drones[*].app[0].packetName "\"UAV-DEFAULT-PAYLOAD\""
param *.drones[*].app[1].typename "\"UdpSinkMobileNode\""
param *.drones[*].app[1].localPort 1000
param *.sensor.mobility.typename "\"StationaryMobility\""
param *.sensor*.numApps 2
param *.sensor*.app[0].typename "\"UdpBasicAppMobileSensorNode\""
param *.sensor*.app[0].destPort 1000
param *.sensor*.app[0].sendInterval 0.1s
param *.sensor*.app[0].startTime 1s
param *.sensor*.app[0].messageLength 1454Byte
param *.sensor*.app[0].packetName "\"SENSOR-DEFAULT-PAYLOAD\""
param *.sensor*.app[1].typename "\"UdpSinkMobileSensorNode\""
param *.sensor*.app[1].localPort 1000

vector 0 mobilityDrones.drones[0].wlan[0].radio radioMode:vector ETV
attr interpolationmode sample-hold
attr source radioModeChanged
attr title "Radio mode, vector"
vector 1 mobilityDrones.drones[0].wlan[0].radio radioChannel:vector ETV
attr interpolationmode sample-hold
attr source radioChannelChanged
attr title "Radio channel, vector"
vector 2 mobilityDrones.sensor1.wlan[0].radio radioMode:vector ETV
attr interpolationmode sample-hold
attr source radioModeChanged
attr title "Radio mode, vector"
vector 3 mobilityDrones.sensor1.wlan[0].radio radioChannel:vector ETV
attr interpolationmode sample-hold
attr source radioChannelChanged
attr title "Radio channel, vector"
vector 4 mobilityDrones.sensor2.wlan[0].radio radioMode:vector ETV
attr interpolationmode sample-hold
attr source radioModeChanged
attr title "Radio mode, vector"
vector 5 mobilityDrones.sensor2.wlan[0].radio radioChannel:vector ETV
attr interpolationmode sample-hold
attr source radioChannelChanged
attr title "Radio channel, vector"
vector 6 mobilityDrones.sensor3.wlan[0].radio radioMode:vector ETV
attr interpolationmode sample-hold
attr source radioModeChanged
attr title "Radio mode, vector"
vector 7 mobilityDrones.sensor3.wlan[0].radio radioChannel:vector ETV
attr interpolationmode sample-hold
attr source radioChannelChanged
attr title "Radio channel, vector"
vector 8 mobilityDrones.drones[0].wlan[0].radio receptionState:vector ETV
attr interpolationmode sample-hold
attr source receptionStateChanged
attr title "Radio reception state, vector"
vector 9 mobilityDrones.sensor1.wlan[0].radio receptionState:vector ETV
attr interpolationmode sample-hold
attr source receptionStateChanged
attr title "Radio reception state, vector"
vector 10 mobilityDrones.sensor2.wlan[0].radio receptionState:vector ETV
attr interpolationmode sample-hold
attr source receptionStateChanged
attr title "Radio reception state, vector"
vector 11 mobilityDrones.sensor3.wlan[0].radio receptionState:vector ETV
attr interpolationmode sample-hold
attr source receptionStateChanged
attr title "Radio reception state, vector"
vector 12 mobilityDrones.drones[0].wlan[0].mac.dcf.recoveryProcedure contentionWindowChanged:vector ETV
attr interpolationmode sample-hold
attr title "contention window, vector"
vector 13 mobilityDrones.sensor1.wlan[0].mac.dcf.recoveryProcedure contentionWindowChanged:vector ETV
attr interpolationmode sample-hold
attr title "contention window, vector"
vector 14 mobilityDrones.sensor2.wlan[0].mac.dcf.recoveryProcedure contentionWindowChanged:vector ETV
attr interpolationmode sample-hold
attr title "contention window, vector"
vector 15 mobilityDrones.sensor3.wlan[0].mac.dcf.recoveryProcedure contentionWindowChanged:vector ETV
attr interpolationmode sample-hold
attr title "contention window, vector"
vector 16 mobilityDrones.drones[0].app[0] packetSent:vector(packetBytes) ETV
attr interpolationmode none
attr source packetSent
attr title "packets sent, vector(packetBytes)"
vector 17 mobilityDrones.drones[0].udp packetSent:vector(packetBytes) ETV
attr interpolationmode none
attr source packetSent
attr title "packets sent, vector(packetBytes)"
vector 18 mobilityDrones.drones[0].ipv4.arp arpRequestSent:vector(packetBytes) ETV
attr source arpRequestSent
attr title "ARP request sent, vector(packetBytes)"
vector 19 mobilityDrones.drones[0].wlan[0].mac packetReceivedFromUpper:vector(packetBytes) ETV
attr interpolationmode none
attr title "packets received from upper layer, vector(packetBytes)"
vector 20 mobilityDrones.drones[0].wlan[0].mac.dcf.channelAccess.pendingQueue packetPushed:vector(packetBytes) ETV
attr interpolationmode none
attr title "packet pushed, vector(packetBytes)"
vector 21 mobilityDrones.drones[0].wlan[0].mac.dcf.channelAccess.pendingQueue queueLength:vector ETV
attr interpolationmode sample-hold
attr source "count(packetPushed) - count(packetPopped) - count(packetRemoved) - count(packetDropped)"
attr title "queue length, vector"
vector 22 mobilityDrones.drones[0].wlan[0].mac.dcf.channelAccess.contention backoffPeriodGenerated:vector ETV
attr interpolationmode none
attr title "backoff periods, vector"
vector 23 mobilityDrones.drones[0].wlan[0].mac.dcf.channelAccess.contention backoffActive:vector ETV
attr interpolationmode sample-hold
attr source count(backoffStarted)-count(backoffStopped)
attr title "backoff active, vector"
vector 24 mobilityDrones.drones[0].wlan[0].mac.dcf.channelAccess.pendingQueue packetPopped:vector(packetBytes) ETV
attr interpolationmode none
attr title "packet popped, vector(packetBytes)"
vector 25 mobilityDrones.drones[0].wlan[0].mac.dcf.channelAccess.pendingQueue queueingTime:vector ETV
attr interpolationmode none
attr source queueingTime(packetPopped)
attr title "queueing times, vector"
attr unit s
vector 26 mobilityDrones.drones[0].wlan[0].mac.dcf.channelAccess.inProgressFrames queueLength:vector ETV
attr interpolationmode sample-hold
attr source "count(packetEnqueued) - count(packetDequeued)"
attr title "queue length, vector"
vector 27 mobilityDrones.drones[0].wlan[0].mac.dcf datarateSelected:vector ETV
attr interpolationmode none
attr title "datarates selected, vector"
vector 28 mobilityDrones.drones[0].wlan[0].mac packetSentToLower:vector(packetBytes) ETV
attr interpolationmode none
attr title "packets sent to lower layer, vector(packetBytes)"
vector 29 mobilityDrones.drones[0].wlan[0].mac.dcf frameSequenceActive:vector ETV
attr interpolationmode sample-hold
attr source count(frameSequenceStarted)-count(frameSequenceFinished)
attr title "frame sequence active, vector"
vector 30 mobilityDrones.drones[0].wlan[0].radio transmissionState:vector ETV
attr interpolationmode sample-hold
attr source transmissionStateChanged
attr title "Radio transmission state, vector"
vector 31 mobilityDrones.drones[0].wlan[0].mac.dcf packetSentToPeer:vector(packetBytes) ETV
attr interpolationmode none
attr title "packets sent, vector(packetBytes)"
vector 32 mobilityDrones.drones[0].wlan[0].mac.dcf packetSentToPeerMulticast:vector(packetBytes) ETV
attr interpolationmode none
attr source ieee80211Multicast(packetSentToPeer)
attr title "packets sent: multicast, vector(packetBytes)"
vector 33 mobilityDrones.drones[0].wlan[0].mac.dcf packetSentToPeerBroadcast:vector(packetBytes) ETV
attr interpolationmode none
attr source ieee80211Broadcast(packetSentToPeer)
attr title "packets sent: broadcast , vector(packetBytes)"
vector 34 mobilityDrones.drones[0].wlan[0].mac.dcf packetSentToPeerWithoutRetry:vector(packetBytes) ETV
attr interpolationmode none
attr source ieee80211NotRetry(packetSentToPeer)
attr title "packets sent: without retry, vector(packetBytes)"
vector 35 mobilityDrones.drones[0].wlan[0].mac.dcf.channelAccess.inProgressFrames queueingTime:vector ETV
attr interpolationmode none
attr source queueingTime(packetDequeued)
attr title "queueing times, vector"
vector 36 mobilityDrones.drones[0].ipv4.ip packetDropAddressResolutionFailed:vector(packetBytes) ETV
attr interpolationmode none
attr source packetDropReasonIsAddressResolutionFailed(packetDropped)
attr title "packet drop: address resolution failed, vector(packetBytes)"
vector 37 mobilityDrones.sensor1.wlan[0].mac packetReceivedFromLower:vector(packetBytes) ETV
attr interpolationmode none
attr title "packets received from lower layer, vector(packetBytes)"
vector 38 mobilityDrones.sensor1.wlan[0].mac.dcf packetReceivedFromPeer:vector(packetBytes) ETV
attr interpolationmode none
attr title "packets received, vector(packetBytes)"
vector 39 mobilityDrones.sensor1.wlan[0].mac.dcf packetReceivedFromPeerMulticast:vector(packetBytes) ETV
attr interpolationmode none
attr source ieee80211Multicast(packetReceivedFromPeer)
attr title "packets received: multicast, vector(packetBytes)"
vector 40 mobilityDrones.sensor1.wlan[0].mac.dcf packetReceivedFromPeerBroadcast:vector(packetBytes) ETV
attr interpolationmode none
attr source ieee80211Broadcast(packetReceivedFromPeer)
attr title "packets received: broadcast, vector(packetBytes)"
vector 41 mobilityDrones.sensor1.wlan[0].mac.dcf packetReceivedFromPeerWithoutRetry:vector(packetBytes) ETV
attr interpolationmode none
attr source ieee80211NotRetry(packetReceivedFromPeer)
attr title "packets received: without retry, vector(packetBytes)"
vector 42 mobilityDrones.sensor1.wlan[0].mac packetSentToUpper:vector(packetBytes) ETV
attr interpolationmode none
attr title "packets sent to upper layer, vector(packetBytes)"
vector 43 mobilityDrones.sensor1.ipv4.arp arpReplySent:vector(packetBytes) ETV
attr source arpReplySent
attr title "ARP replies sent, vector(packetBytes)"
vector 44 mobilityDrones.sensor1.wlan[0].mac packetReceivedFromUpper:vector(packetBytes) ETV
attr interpolationmode none
attr title "packets received from upper layer, vector(packetBytes)"
vector 45 mobilityDrones.sensor1.wlan[0].mac.dcf.channelAccess.pendingQueue packetPushed:vector(packetBytes) ETV
attr interpolationmode none
attr title "packet pushed, vector(packetBytes)"
vector 46 mobilityDrones.sensor1.wlan[0].mac.dcf.channelAccess.pendingQueue queueLength:vector ETV
attr interpolationmode sample-hold
attr source "count(packetPushed) - count(packetPopped) - count(packetRemoved) - count(packetDropped)"
attr title "queue length, vector"
vector 47 mobilityDrones.sensor1.wlan[0].mac.dcf.channelAccess.contention backoffPeriodGenerated:vector ETV
attr interpolationmode none
attr title "backoff periods, vector"
vector 48 mobilityDrones.sensor1.wlan[0].mac.dcf.channelAccess.contention backoffActive:vector ETV
attr interpolationmode sample-hold
attr source count(backoffStarted)-count(backoffStopped)
attr title "backoff active, vector"
vector 49 mobilityDrones.sensor1.wlan[0].mac.dcf.channelAccess.pendingQueue packetPopped:vector(packetBytes) ETV
attr interpolationmode none
attr title "packet popped, vector(packetBytes)"
vector 50 mobilityDrones.sensor1.wlan[0].mac.dcf.channelAccess.pendingQueue queueingTime:vector ETV
attr interpolationmode none
attr source queueingTime(packetPopped)
attr title "queueing times, vector"
attr unit s
vector 51 mobilityDrones.sensor1.wlan[0].mac.dcf.channelAccess.inProgressFrames queueLength:vector ETV
attr interpolationmode sample-hold
attr source "count(packetEnqueued) - count(packetDequeued)"
attr title "queue length, vector"
vector 52 mobilityDrones.sensor1.wlan[0].mac.dcf datarateSelected:vector ETV
attr interpolationmode none
attr title "datarates selected, vector"
vector 53 mobilityDrones.sensor1.wlan[0].mac packetSentToLower:vector(packetBytes) ETV
attr interpolationmode none
attr title "packets sent to lower layer, vector(packetBytes)"
vector 54 mobilityDrones.sensor1.wlan[0].mac.dcf frameSequenceActive:vector ETV
attr interpolationmode sample-hold
attr source count(frameSequenceStarted)-count(frameSequenceFinished)
attr title "frame sequence active, vector"
vector 55 mobilityDrones.sensor1.wlan[0].radio transmissionState:vector ETV
attr interpolationmode sample-hold
attr source transmissionStateChanged
attr title "Radio transmission state, vector"
vector 56 mobilityDrones.sensor1.wlan[0].mac.dcf packetSentToPeer:vector(packetBytes) ETV
attr interpolationmode none
attr title "packets sent, vector(packetBytes)"
vector 57 mobilityDrones.sensor1.wlan[0].mac.dcf packetSentToPeerUnicast:vector(packetBytes) ETV
attr interpolationmode none
attr source ieee80211Unicast(packetSentToPeer)
attr title "packets sent: unicast, vector(packetBytes)"
vector 58 mobilityDrones.sensor1.wlan[0].mac.dcf packetSentToPeerWithoutRetry:vector(packetBytes) ETV
attr interpolationmode none
attr source ieee80211NotRetry(packetSentToPeer)
attr title "packets sent: without retry, vector(packetBytes)"
vector 59 mobilityDrones.sensor1.wlan[0].mac.rx nav:vector ETV
attr interpolationmode linear
attr source navChanged
attr title "network allocation vector, vector"
vector 60 mobilityDrones.drones[0].wlan[0].mac packetReceivedFromLower:vector(packetBytes) ETV
attr interpolationmode none
attr title "packets received from lower layer, vector(packetBytes)"
vector 61 mobilityDrones.drones[0].wlan[0].mac.dcf packetReceivedFromPeer:vector(packetBytes) ETV
attr interpolationmode none
attr title "packets received, vector(packetBytes)"
vector 62 mobilityDrones.drones[0].wlan[0].mac.dcf packetReceivedFromPeerUnicast:vector(packetBytes) ETV
attr interpolationmode none
attr source ieee80211Unicast(packetReceivedFromPeer)
attr title "packets received: unicast, vector(packetBytes)"
vector 63 mobilityDrones.drones[0].wlan[0].mac.dcf packetReceivedFromPeerWithoutRetry:vector(packetBytes) ETV
attr interpolationmode none
attr source ieee80211NotRetry(packetReceivedFromPeer)
attr title "packets received: without retry, vector(packetBytes)"
vector 64 mobilityDrones.drones[0].wlan[0].mac packetSentToUpper:vector(packetBytes) ETV
attr interpolationmode none
attr title "packets sent to upper layer, vector(packetBytes)"
vector 65 mobilityDrones.drones[0].wlan[0].mac.dcf packetSentToPeerUnicast:vector(packetBytes) ETV
attr interpolationmode none
attr source ieee80211Unicast(packetSentToPeer)
attr title "packets sent: unicast, vector(packetBytes)"
vector 66 mobilityDrones.sensor1.wlan[0].mac.dcf packetReceivedFromPeerUnicast:vector(packetBytes) ETV
attr interpolationmode none
attr source ieee80211Unicast(packetReceivedFromPeer)
attr title "packets received: unicast, vector(packetBytes)"
vector 67 mobilityDrones.sensor1.wlan[0].mac.dcf.channelAccess.inProgressFrames queueingTime:vector ETV
attr interpolationmode none
attr source queueingTime(packetDequeued)
attr title "queueing times, vector"
vector 68 mobilityDrones.drones[0].wlan[0].mac.rx nav:vector ETV
attr interpolationmode linear
attr source navChanged
attr title "network allocation vector, vector"
vector 69 mobilityDrones.sensor1.udp packetReceived:vector(packetBytes) ETV
attr interpolationmode none
attr source packetReceived
attr title "packets received, vector(packetBytes)"
vector 70 mobilityDrones.sensor1.udp passedUpPk:vector(count) ETV
attr interpolationmode none
attr source packetSentToUpper
attr title "packets passed up, vector(count)"
vector 71 mobilityDrones.sensor1.app[1] packetReceived:vector(packetBytes) ETV
attr interpolationmode none
attr source packetReceived
attr title "packets received, vector(packetBytes)"
vector 72 mobilityDrones.sensor1.app[1] throughput:vector ETV
attr source throughput(packetReceived)
attr title "throughput, vector"
attr unit bps
vector 73 mobilityDrones.sensor1.app[1] endToEndDelay:vector ETV
attr interpolationmode none
attr source dataAge(packetReceived)
attr title "end-to-end delay, vector"
attr unit s
vector 74 mobilityDrones.sensor1.app[1] rcvdPkSeqNo:vector ETV
attr interpolationmode none
attr source appPkSeqNo(packetReceived)
attr title "received packet sequence number, vector"
vector 75 mobilityDrones.sensor1.app[0] packetSent:vector(packetBytes) ETV
attr interpolationmode none
attr source packetSent
attr title "packets sent, vector(packetBytes)"
vector 76 mobilityDrones.sensor1.udp packetSent:vector(packetBytes) ETV
attr interpolationmode none
attr source packetSent
attr title "packets sent, vector(packetBytes)"
vector 77 mobilityDrones.drones[0].udp packetReceived:vector(packetBytes) ETV
attr interpolationmode none
attr source packetReceived
attr title "packets received, vector(packetBytes)"
vector 78 mobilityDrones.drones[0].udp passedUpPk:vector(count) ETV
attr interpolationmode none
attr source packetSentToUpper
attr title "packets passed up, vector(count)"
vector 79 mobilityDrones.drones[0].app[1] packetReceived:vector(packetBytes) ETV
attr interpolationmode none
attr source packetReceived
attr title "packets received, vector(packetBytes)"
vector 80 mobilityDrones.drones[0].app[1] throughput:vector ETV
attr source throughput(packetReceived)
attr title "throughput, vector"
attr unit bps
vector 81 mobilityDrones.drones[0].app[1] endToEndDelay:vector ETV
attr interpolationmode none
attr source dataAge(packetReceived)
attr title "end-to-end delay, vector"
attr unit s
vector 82 mobilityDrones.drones[0].app[1] rcvdPkSeqNo:vector ETV
attr interpolationmode none
attr source appPkSeqNo(packetReceived)
attr title "received packet sequence number, vector"
vector 83 mobilityDrones.sensor1.wlan[0].mac packetDrop:vector(packetBytes) ETV
attr interpolationmode none
attr source packetDropped
attr title "packet drops, vector(packetBytes)"
vector 84 mobilityDrones.sensor1.wlan[0].mac packetDropIncorrectlyReceived:vector(packetBytes) ETV
attr interpolationmode none
attr source packetDropReasonIsIncorrectlyReceived(packetDropped)
attr title "packet drops: incorrectly received, vector(packetBytes)"
vector 85 mobilityDrones.drones[0].wlan[0].mac.dcf packetSentToPeerWithRetry:vector(packetBytes) ETV
attr interpolationmode none
attr source ieee80211Retry(packetSentToPeer)
attr title "packets sent: with retry, vector(packetBytes)"
vector 86 mobilityDrones.drones[0].wlan[0].mac.dcf packetDrop:vector(packetBytes) ETV
attr interpolationmode none
attr source packetDropped
attr title "packet drops, vector(packetBytes)"
vector 87 mobilityDrones.drones[0].wlan[0].mac.dcf packetDropRetryLimitReached:vector(packetBytes) ETV
attr interpolationmode none
attr source packetDropReasonIsRetryLimitReached(packetDropped)
attr title "packet drops: retry limit reached, vector(packetBytes)"
vector 88 mobilityDrones.drones[0].wlan[0].mac packetDrop:vector(packetBytes) ETV
attr interpolationmode none
attr source packetDropped
attr title "packet drops, vector(packetBytes)"
vector 89 mobilityDrones.drones[0].wlan[0].mac packetDropRetryLimitReached:vector(packetBytes) ETV
attr interpolationmode none
attr source packetDropReasonIsRetryLimitReached(packetDropped)
attr title "packet drops: retry limit reached, vector(packetBytes)"
vector 90 mobilityDrones.sensor1.wlan[0].mac.dcf packetReceivedFromPeerWithRetry:vector(packetBytes) ETV
attr interpolationmode none
attr source ieee80211Retry(packetReceivedFromPeer)
attr title "packets received: with retry, vector(packetBytes)"
0	0	0	0
0	0	0	0
0	0	0	2
0	30	0.923223131471	3
0	36	0.923273131471	2
0	92	1.923223131471	3
0	98	1.923273131471	2
0	151	2.923223131471	3
0	157	2.923273131471	2
0	210	3.923223131471	3
0	216	3.923273131471	2
0	269	4.923223131471	3
0	275	4.923273131471	2
0	328	5.923223131471	3
0	334	5.923273131471	2
0	387	6.923223131471	3
0	393	6.923273131471	2
0	446	7.923223131471	3
0	452	7.923273131471	2
0	505	8.923223131471	3
0	511	8.923273131471	2
0	564	9.923223131471	3
0	570	9.923273131471	2
0	623	10.923223131471	3
0	629	10.923273131471	2
0	682	11.923223131471	3
0	688	11.923273131471	2
0	741	12.923223131471	3
0	747	12.923273131471	2
0	800	13.923223131471	3
0	806	13.923273131471	2
0	859	14.923223131471	3
0	865	14.923273131471	2
0	918	15.923223131471	3
0	924	15.923273131471	2
0	977	16.923223131471	3
0	983	16.923273131471	2
0	1036	17.923223131471	3
0	1042	17.923273131471	2
0	1095	18.923223131471	3
0	1101	18.923273131471	2
0	1154	19.923223131471	3
0	1160	19.923273131471	2
0	1213	20.923223131471	3
0	1219	20.923273131471	2
0	1272	21.923223131471	3
0	1278	21.923273131471	2
0	1331	22.923223131471	3
0	1337	22.923273131471	2
0	1390	23.923223131471	3
0	1396	23.923273131471	2
0	1449	24.923223131471	3
0	1455	24.923273131471	2
0	1508	25.923223131471	3
0	1514	25.923273131471	2
0	1567	26.923223131471	3
0	1573	26.923273131471	2
0	1626	27.923223131471	3
0	1632	27.923273131471	2
0	1685	28.923223131471	3
0	1691	28.923273131471	2
0	1744	29.923223131471	3
0	1750	29.923273131471	2
0	1803	30.923223131471	3
0	1809	30.923273131471	2
0	1862	31.923223131471	3
0	1868	31.923273131471	2
0	1921	32.923223131471	3
0	1927	32.923273131471	2
0	1980	33.923223131471	3
0	1986	33.923273131471	2
0	2011	33.923903875969	3
0	2020	33.923937875969	2
0	2027	33.924467875969	3
0	2033	33.924997875969	2
0	2049	33.925052620341	3
0	2057	33.925098620341	2
0	2107	34.000540368298	3
0	2115	34.000574368298	2
0	2135	34.000641104836	3
0	2145	34.000675104836	2
0	2197	34.923223131471	3
0	2203	34.923753131471	2
0	2219	34.923807772647	3
0	2227	34.923853772647	2
0	2274	35.000540316635	3
0	2282	35.000574316635	2
0	2302	35.000640949847	3
0	2312	35.000674949847	2
0	2364	35.923223131471	3
0	2370	35.923753131471	2
0	2386	35.923807669321	3
0	2394	35.923853669321	2
0	2441	36.000540264972	3
0	2449	36.000574264972	2
0	2469	36.000640794859	3
0	2479	36.000674794859	2
0	2531	36.923223131471	3
0	2537	36.923753131471	2
0	2553	36.923807565995	3
0	2561	36.923853565995	2
0	2608	37.00054021331	3
0	2616	37.00057421331	2
0	2636	37.000640639871	3
0	2646	37.000674639871	2
0	2698	37.923223131471	3
0	2704	37.923753131471	2
0	2720	37.923807462669	3
0	2728	37.923853462669	2
0	2775	38.000540161647	3
0	2783	38.000574161647	2
0	2803	38.000640484883	3
0	2813	38.000674484883	2
0	2865	38.923223131471	3
0	2871	38.923753131471	2
0	2887	38.923807359343	3
0	2895	38.923853359343	2
0	2942	39.000540109984	3
0	2950	39.000574109984	2
0	2970	39.000640329894	3
0	2980	39.000674329894	2
0	3032	39.923223131471	3
0	3038	39.923753131471	2
0	3054	39.923807256019	3
0	3062	39.923853256019	2
0	3109	40.000540058321	3
0	3117	40.000574058321	2
0	3137	40.000640174905	3
0	3147	40.000674174905	2
0	3199	40.923223131471	3
0	3205	40.923753131471	2
0	3221	40.923807152693	3
0	3229	40.923853152693	2
0	3276	41.000540008054	3
0	3284	41.000574008054	2
0	3304	41.000640024133	3
0	3314	41.000674024133	2
0	3366	41.923223131471	3
0	3372	41.923753131471	2
0	3388	41.923807234175	3
0	3396	41.923853234175	2
0	3443	42.000540055305	3
0	3451	42.000574055305	2
0	3471	42.000640165973	3
0	3481	42.000674165973	2
0	3533	42.923223131471	3
0	3539	42.923753131471	2
0	3555	42.923807337499	3
0	3563	42.923853337499	2
0	3610	43.000540106966	3
0	3618	43.000574106966	2
0	3638	43.000640320957	3
0	3648	43.000674320957	2
0	3700	43.923223131471	3
0	3706	43.923753131471	2
0	3722	43.923807440824	3
0	3730	43.923853440824	2
0	3777	44.000540158629	3
0	3785	44.000574158629	2
0	3805	44.000640475945	3
0	3815	44.000674475945	2
0	3867	44.923223131471	3
0	3873	44.923753131471	2
0	3889	44.923807544149	3
0	3897	44.923853544149	2
0	3944	45.000540210292	3
0	3952	45.000574210292	2
0	3972	45.000640630934	3
0	3982	45.000674630934	2
0	4034	45.923223131471	3
0	4040	45.923753131471	2
0	4056	45.923807647475	3
0	4064	45.923853647475	2
0	4111	46.000540261954	3
0	4119	46.000574261954	2
0	4139	46.000640785921	3
0	4149	46.000674785921	2
0	4201	46.923223131471	3
0	4207	46.923753131471	2
0	4223	46.923807750801	3
0	4231	46.923853750801	2
0	4278	47.000540313617	3
0	4286	47.000574313617	2
0	4306	47.000640940909	3
0	4316	47.000674940909	2
0	4368	47.923223131471	3
0	4374	47.923753131471	2
0	4390	47.923807854126	3
0	4398	47.923853854126	2
0	4445	48.00054036528	3
0	4453	48.00057436528	2
0	4473	48.000641095898	3
0	4483	48.000675095898	2
0	4535	48.923223131471	3
0	4541	48.923753131471	2
0	4550	48.924267131471	3
0	4556	48.924797131471	2
0	4565	48.926071131471	3
0	4571	48.926601131471	2
0	4580	48.927555131471	3
0	4586	48.928085131471	2
0	4595	48.931759131471	3
0	4601	48.932289131471	2
0	4614	48.939903131471	3
0	4620	48.940433131471	2
0	4630	48.949507131471	3
0	4636	48.950037131471	2
0	4646	48.950491131471	3
0	4652	48.950537131471	2
0	4661	48.951111131471	3
0	4667	48.951157131471	2
0	4736	49.923223131471	3
0	4742	49.923753131471	2
0	4750	49.924627131471	3
0	4756	49.925157131471	2
0	4764	49.927491131471	3
0	4770	49.928021131471	2
0	4778	49.928475131471	3
0	4784	49.929005131471	2
0	4794	49.936559131471	3
0	4800	49.937089131471	2
0	4810	49.943203131471	3
0	4816	49.943733131471	2
0	4825	49.950487131471	3
0	4831	49.951017131471	2
0	4839	49.951591131471	3
0	4845	49.951637131471	2
0	4853	49.952351131471	3
0	4859	49.952397131471	2
0	4868	49.953931131471	3
0	4874	49.953977131471	2
0	4882	49.957151131471	3
0	4888	49.957197131471	2
0	4900	49.966291131471	3
0	4906	49.966337131471	2
0	4915	49.971391131471	3
0	4921	49.971437131471	2
0	4929	49.975131131471	3
0	4935	49.975177131471	2
0	4991	50.923223131471	3
0	4997	50.923753131471	2
0	5006	50.940527131471	3
0	5012	50.941057131471	2
0	5021	50.956891131471	3
0	5027	50.957421131471	2
0	5036	50.974895131471	3
0	5042	50.975425131471	2
0	5050	50.980819131471	3
0	5056	50.981349131471	2
0	5070	51.000803131471	3
0	5076	51.001333131471	2
0	5085	51.016507131471	3
0	5091	51.017037131471	2
0	5099	51.020011131471	3
0	5105	51.020057131471	2
0	5115	51.040551131471	3
0	5121	51.040597131471	2
0	5130	51.052651131471	3
0	5136	51.052697131471	2
0	5144	51.062011131471	3
0	5150	51.062057131471	2
0	5160	51.079931131471	3
0	5166	51.079977131471	2
0	5175	51.092491131471	3
0	5181	51.092537131471	2
0	5194	51.109491131471	3
0	5200	51.109537131471	2
0	5246	51.923223131471	3
0	5252	51.923753131471	2
0	5260	51.926987131471	3
0	5266	51.927517131471	2
0	5276	51.946211131471	3
0	5282	51.946741131471	2
0	5290	51.949915131471	3
0	5296	51.950445131471	2
0	5304	51.952839131471	3
0	5310	51.953369131471	2
0	5318	51.954063131471	3
0	5324	51.954593131471	2
0	5335	51.964067131471	3
0	5341	51.964597131471	2
0	5351	51.983911131471	3
0	5357	51.983957131471	2
0	5370	52.001831131471	3
0	5376	52.001877131471	2
0	5385	52.019691131471	3
0	5391	52.019737131471	2
0	5399	52.022171131471	3
0	5405	52.022217131471	2
0	5414	52.031211131471	3
0	5420	52.031257131471	2
0	5430	52.043251131471	3
0	5436	52.043297131471	2
0	5445	52.056851131471	3
0	5451	52.056897131471	2
0	5501	52.923223131471	3
0	5507	52.923753131471	2
0	5515	52.928507131471	3
0	5521	52.929037131471	2
0	5531	52.939371131471	3
0	5537	52.939901131471	2
0	5546	52.955355131471	3
0	5552	52.955885131471	2
0	5560	52.958499131471	3
0	5566	52.959029131471	2
0	5574	52.965743131471	3
0	5581	52.966273131471	2
0	5590	52.975847131471	3
0	5597	52.976377131471	2
0	5605	52.982311131471	3
0	5611	52.982357131471	2
0	5621	52.992951131471	3
0	5627	52.992997131471	2
0	5640	53.009871131471	3
0	5646	53.009917131471	2
0	5655	53.023931131471	3
0	5661	53.023977131471	2
0	5669	53.027111131471	3
0	5675	53.027157131471	2
0	5685	53.039071131471	3
0	5691	53.039117131471	2
0	5699	53.040031131471	3
0	5705	53.040077131471	2
0	5756	53.923223131471	3
0	5762	53.923753131471	2
0	5770	53.932707131471	3
0	5776	53.933237131471	2
0	5785	53.937571131471	3
0	5791	53.938101131471	2
0	5801	53.953875131471	3
0	5807	53.954405131471	2
0	5815	53.957919131471	3
0	5821	53.958449131471	2
0	5829	53.960863131471	3
0	5835	53.961393131471	2
0	5845	53.968567131471	3
0	5851	53.969097131471	2
0	5861	53.989631131471	3
0	5867	53.989677131471	2
0	5875	53.992351131471	3
0	5881	53.992397131471	2
0	5895	54.007191131471	3
0	5901	54.007237131471	2
0	5910	54.025051131471	3
0	5916	54.025097131471	2
0	5925	54.041431131471	3
0	5931	54.041477131471	2
0	5939	54.045891131471	3
0	5945	54.045937131471	2
0	5954	54.053651131471	3
0	5960	54.053697131471	2
0	6011	54.923223131471	3
0	6017	54.923753131471	2
0	6026	54.943507131471	3
0	6032	54.944037131471	2
0	6041	54.964371131471	3
0	6047	54.964901131471	2
0	6056	54.980515131471	3
0	6062	54.981045131471	2
0	6070	54.985919131471	3
0	6076	54.986449131471	2
0	6090	55.000963131471	3
0	6096	55.001493131471	2
0	6105	55.021647131471	3
0	6111	55.022177131471	2
0	6119	55.028191131471	3
0	6125	55.028237131471	2
0	6135	55.042851131471	3
0	6141	55.042897131471	2
0	6150	55.063431131471	3
0	6156	55.063477131471	2
0	6165	55.077591131471	3
0	6171	55.077637131471	2
0	6180	55.091911131471	3
0	6186	55.091957131471	2
0	6199	55.106591131471	3
0	6205	55.106637131471	2
0	6214	55.117831131471	3
0	6220	55.117877131471	2
0	6266	55.923223131471	3
0	6272	55.923753131471	2
0	6281	55.936267131471	3
0	6287	55.936797131471	2
0	6295	55.941231131471	3
0	6301	55.941761131471	2
0	6309	55.944715131471	3
0	6315	55.945245131471	2
0	6326	55.959319131471	3
0	6332	55.959849131471	2
0	6341	55.980103131471	3
0	6347	55.980633131471	2
0	6355	55.989247131471	3
0	6361	55.989777131471	2
0	6375	56.002711131471	3
0	6381	56.002757131471	2
0	6390	56.016211131471	3
0	6396	56.016257131471	2
0	6405	56.028811131471	3
0	6411	56.028857131471	2
0	6419	56.038711131471	3
0	6425	56.038757131471	2
0	6435	56.054251131471	3
0	6441	56.054297131471	2
0	6450	56.065171131471	3
0	6456	56.065217131471	2
0	6465	56.084891131471	3
0	6471	56.084937131471	2
0	6521	56.923223131471	3
0	6527	56.923753131471	2
0	6536	56.940367131471	3
0	6542	56.940897131471	2
0	6550	56.947231131471	3
0	6556	56.947761131471	2
0	6565	56.951435131471	3
0	6571	56.951965131471	2
0	6579	56.955119131471	3
0	6585	56.955649131471	2
0	6596	56.974823131471	3
0	6602	56.975353131471	2
0	6611	56.986367131471	3
0	6617	56.986897131471	2
0	6626	56.998671131471	3
0	6632	56.998717131471	2
0	6645	57.009751131471	3
0	6651	57.009797131471	2
0	6660	57.026031131471	3
0	6666	57.026077131471	2
0	6674	57.034031131471	3
0	6680	57.034077131471	2
0	6688	57.035631131471	3
0	6694	57.035677131471	2
0	6703	57.041711131471	3
0	6709	57.041757131471	2
0	6720	57.060231131471	3
0	6726	57.060277131471	2
0	6776	57.923223131471	3
0	6782	57.923753131471	2
0	6791	57.938547131471	3
0	6797	57.939077131471	2
0	6806	57.958191131471	3
0	6812	57.958721131471	2
0	6821	57.976435131471	3
0	6827	57.976965131471	2
0	6836	57.992579131471	3
0	6842	57.993109131471	2
0	6855	58.009283131471	3
0	6861	58.009813131471	2
0	6870	58.025547131471	3
0	6876	58.026077131471	2
0	6884	58.034151131471	3
0	6890	58.034197131471	2
0	6900	58.045071131471	3
0	6906	58.045117131471	2
0	6914	58.053791131471	3
0	6920	58.053837131471	2
0	6929	58.057911131471	3
0	6935	58.057957131471	2
0	6944	58.066511131471	3
0	6950	58.066557131471	2
0	6958	58.067871131471	3
0	6964	58.067917131471	2
0	6973	58.074831131471	3
0	6979	58.074877131471	2
0	7031	58.923223131471	3
0	7037	58.923753131471	2
0	7046	58.939987131471	3
0	7052	58.940517131471	2
0	7061	58.959311131471	3
0	7067	58.959841131471	2
0	7075	58.961795131471	3
0	7081	58.962325131471	2
0	7089	58.963179131471	3
0	7095	58.963709131471	2
0	7106	58.976803131471	3
0	7112	58.977333131471	2
0	7120	58.982167131471	3
0	7126	58.982697131471	2
0	7136	58.998231131471	3
0	7142	58.998277131471	2
0	7150	58.999091131471	3
0	7156	58.999137131471	2
0	7170	59.014591131471	3
0	7176	59.014637131471	2
0	7184	59.023911131471	3
0	7190	59.023957131471	2
0	7199	59.029851131471	3
0	7205	59.029897131471	2
0	7213	59.033931131471	3
0	7219	59.033977131471	2
0	7230	59.051951131471	3
0	7236	59.051997131471	2
0	7286	59.923223131471	3
1	0	0	0
2	0	0	0
2	0	0	0
2	0	0	2
2	1997	33.923843503736	3
2	2003	33.923893503736	2
2	2037	33.925008248169	3
2	2045	33.925042248169	2
2	2065	33.925108992511	3
2	2075	33.925142992511	2
2	2097	34	3
2	2103	34.00053	2
2	2119	34.000584736568	3
2	2127	34.000630736568	2
2	2207	34.923763452073	3
2	2215	34.923797452073	2
2	2235	34.923864093219	3
2	2245	34.923898093219	2
2	2264	35	3
2	2270	35.00053	2
2	2286	35.000584633242	3
2	2294	35.000630633242	2
2	2374	35.92376340041	3
2	2382	35.92379740041	2
2	2402	35.92386393823	3
2	2412	35.92389793823	2
2	2431	36	3
2	2437	36.00053	2
2	2453	36.000584529917	3
2	2461	36.000630529917	2
2	2541	36.923763348747	3
2	2549	36.923797348747	2
2	2569	36.923863783241	3
2	2579	36.923897783241	2
2	2598	37	3
2	2604	37.00053	2
2	2620	37.000584426592	3
2	2628	37.000630426592	2
2	2708	37.923763297084	3
2	2716	37.923797297084	2
2	2736	37.923863628252	3
2	2746	37.923897628252	2
2	2765	38	3
2	2771	38.00053	2
2	2787	38.000584323266	3
2	2795	38.000630323266	2
2	2875	38.923763245421	3
2	2883	38.923797245421	2
2	2903	38.923863473263	3
2	2913	38.923897473263	2
2	2932	39	3
2	2938	39.00053	2
2	2954	39.00058421994	3
2	2962	39.00063021994	2
2	3042	39.923763193759	3
2	3050	39.923797193759	2
2	3070	39.923863318276	3
2	3080	39.923897318276	2
2	3099	40	3
2	3105	40.00053	2
2	3121	40.000584116614	3
2	3129	40.000630116614	2
2	3209	40.923763142096	3
2	3217	40.923797142096	2
2	3237	40.923863163288	3
2	3247	40.923897163288	2
2	3266	41	3
2	3272	41.00053	2
2	3288	41.000584016094	3
2	3296	41.000630016094	2
2	3376	41.923763182809	3
2	3384	41.923797182809	2
2	3404	41.923863285544	3
2	3414	41.923897285544	2
2	3433	42	3
2	3439	42.00053	2
2	3455	42.000584110638	3
2	3463	42.000630110638	2
2	3543	42.923763234471	3
2	3551	42.923797234471	2
2	3571	42.923863440529	3
2	3581	42.923897440529	2
2	3600	43	3
2	3606	43.00053	2
2	3622	43.00058421396	3
2	3630	43.00063021396	2
2	3710	43.923763286134	3
2	3718	43.923797286134	2
2	3738	43.923863595517	3
2	3748	43.923897595517	2
2	3767	44	3
2	3773	44.00053	2
2	3789	44.000584317286	3
2	3797	44.000630317286	2
2	3877	44.923763337796	3
2	3885	44.923797337796	2
2	3905	44.923863750504	3
2	3915	44.923897750504	2
2	3934	45	3
2	3940	45.00053	2
2	3956	45.000584420612	3
2	3964	45.000630420612	2
2	4044	45.923763389459	3
2	4052	45.923797389459	2
2	4072	45.923863905493	3
2	4082	45.923897905493	2
2	4101	46	3
2	4107	46.00053	2
2	4123	46.000584523936	3
2	4131	46.000630523936	2
2	4211	46.923763441122	3
2	4219	46.923797441122	2
2	4239	46.923864060482	3
2	4249	46.923898060482	2
2	4268	47	3
2	4274	47.00053	2
2	4290	47.000584627262	3
2	4298	47.000630627262	2
2	4378	47.923763492785	3
2	4386	47.923797492785	2
2	4406	47.92386421547	3
2	4416	47.92389821547	2
2	4435	48	3
2	4441	48.00053	2
2	4457	48.000584730588	3
2	4465	48.000630730588	2
2	4671	48.951167545888	3
2	4680	48.951201545888	2
3	0	0	0
4	0	0	0
4	0	0	0
4	0	0	2
5	0	0	0
6	0	0	0
6	0	0	0
6	0	0	2
7	0	0	0
8	0	0	1
8	30	0.923223131471	0
8	36	0.923273131471	1
8	92	1.923223131471	0
8	98	1.923273131471	1
8	151	2.923223131471	0
8	157	2.923273131471	1
8	210	3.923223131471	0
8	216	3.923273131471	1
8	269	4.923223131471	0
8	275	4.923273131471	1
8	328	5.923223131471	0
8	334	5.923273131471	1
8	387	6.923223131471	0
8	393	6.923273131471	1
8	446	7.923223131471	0
8	452	7.923273131471	1
8	505	8.923223131471	0
8	511	8.923273131471	1
8	564	9.923223131471	0
8	570	9.923273131471	1
8	623	10.923223131471	0
8	629	10.923273131471	1
8	682	11.923223131471	0
8	688	11.923273131471	1
8	741	12.923223131471	0
8	747	12.923273131471	1
8	800	13.923223131471	0
8	806	13.923273131471	1
8	859	14.923223131471	0
8	865	14.923273131471	1
8	918	15.923223131471	0
8	924	15.923273131471	1
8	977	16.923223131471	0
8	983	16.923273131471	1
8	1036	17.923223131471	0
8	1042	17.923273131471	1
8	1095	18.923223131471	0
8	1101	18.923273131471	1
8	1154	19.923223131471	0
8	1160	19.923273131471	1
8	1213	20.923223131471	0
8	1219	20.923273131471	1
8	1272	21.923223131471	0
8	1278	21.923273131471	1
8	1331	22.923223131471	0
8	1337	22.923273131471	1
8	1390	23.923223131471	0
8	1396	23.923273131471	1
8	1449	24.923223131471	0
8	1455	24.923273131471	1
8	1508	25.923223131471	0
8	1514	25.923273131471	1
8	1567	26.923223131471	0
8	1573	26.923273131471	1
8	1626	27.923223131471	0
8	1632	27.923273131471	1
8	1685	28.923223131471	0
8	1691	28.923273131471	1
8	1744	29.923223131471	0
8	1750	29.923273131471	1
8	1803	30.923223131471	0
8	1809	30.923273131471	1
8	1862	31.923223131471	0
8	1868	31.923273131471	1
8	1921	32.923223131471	0
8	1927	32.923273131471	1
8	1980	33.923223131471	0
8	1986	33.923273131471	1
8	1999	33.923843875969	3
8	2004	33.923893875969	1
8	2011	33.923903875969	0
8	2020	33.923937875969	1
8	2027	33.924467875969	0
8	2033	33.924997875969	1
8	2039	33.925008620341	3
8	2046	33.925042620341	1
8	2049	33.925052620341	0
8	2057	33.925098620341	1
8	2067	33.925109364678	3
8	2076	33.925143364678	1
8	2099	34.000000368298	3
8	2104	34.000530368298	1
8	2107	34.000540368298	0
8	2115	34.000574368298	1
8	2121	34.000585104836	3
8	2128	34.000631104836	1
8	2135	34.000641104836	0
8	2145	34.000675104836	1
8	2197	34.923223131471	0
8	2203	34.923753131471	1
8	2209	34.923763772647	3
8	2216	34.923797772647	1
8	2219	34.923807772647	0
8	2227	34.923853772647	1
8	2237	34.923864413788	3
8	2246	34.923898413788	1
8	2266	35.000000316635	3
8	2271	35.000530316635	1
8	2274	35.000540316635	0
8	2282	35.000574316635	1
8	2288	35.000584949847	3
8	2295	35.000630949847	1
8	2302	35.000640949847	0
8	2312	35.000674949847	1
8	2364	35.923223131471	0
8	2370	35.923753131471	1
8	2376	35.923763669321	3
8	2383	35.923797669321	1
8	2386	35.923807669321	0
8	2394	35.923853669321	1
8	2404	35.923864207136	3
8	2413	35.923898207136	1
8	2433	36.000000264972	3
8	2438	36.000530264972	1
8	2441	36.000540264972	0
8	2449	36.000574264972	1
8	2455	36.000584794859	3
8	2462	36.000630794859	1
8	2469	36.000640794859	0
8	2479	36.000674794859	1
8	2531	36.923223131471	0
8	2537	36.923753131471	1
8	2543	36.923763565995	3
8	2550	36.923797565995	1
8	2553	36.923807565995	0
8	2561	36.923853565995	1
8	2571	36.923864000484	3
8	2580	36.923898000484	1
8	2600	37.00000021331	3
8	2605	37.00053021331	1
8	2608	37.00054021331	0
8	2616	37.00057421331	1
8	2622	37.000584639871	3
8	2629	37.000630639871	1
8	2636	37.000640639871	0
8	2646	37.000674639871	1
8	2698	37.923223131471	0
8	2704	37.923753131471	1
8	2710	37.923763462669	3
8	2717	37.923797462669	1
8	2720	37.923807462669	0
8	2728	37.923853462669	1
8	2738	37.923863793832	3
8	2747	37.923897793832	1
8	2767	38.000000161647	3
8	2772	38.000530161647	1
8	2775	38.000540161647	0
8	2783	38.000574161647	1
8	2789	38.000584484883	3
8	2796	38.000630484883	1
8	2803	38.000640484883	0
8	2813	38.000674484883	1
8	2865	38.923223131471	0
8	2871	38.923753131471	1
8	2877	38.923763359343	3
8	2884	38.923797359343	1
8	2887	38.923807359343	0
8	2895	38.923853359343	1
8	2905	38.92386358718	3
8	2914	38.92389758718	1
8	2934	39.000000109984	3
8	2939	39.000530109984	1
8	2942	39.000540109984	0
8	2950	39.000574109984	1
8	2956	39.000584329894	3
8	2963	39.000630329894	1
8	2970	39.000640329894	0
8	2980	39.000674329894	1
8	3032	39.923223131471	0
8	3038	39.923753131471	1
8	3044	39.923763256019	3
8	3051	39.923797256019	1
8	3054	39.923807256019	0
8	3062	39.923853256019	1
8	3072	39.92386338053	3
8	3081	39.92389738053	1
8	3101	40.000000058321	3
8	3106	40.000530058321	1
8	3109	40.000540058321	0
8	3117	40.000574058321	1
8	3123	40.000584174905	3
8	3130	40.000630174905	1
8	3137	40.000640174905	0
8	3147	40.000674174905	1
8	3199	40.923223131471	0
8	3205	40.923753131471	1
8	3211	40.923763152693	3
8	3218	40.923797152693	1
8	3221	40.923807152693	0
8	3229	40.923853152693	1
8	3239	40.92386317388	3
8	3248	40.92389717388	1
8	3268	41.000000008054	3
8	3273	41.000530008054	1
8	3276	41.000540008054	0
8	3284	41.000574008054	1
8	3290	41.000584024133	3
8	3297	41.000630024133	1
8	3304	41.000640024133	0
8	3314	41.000674024133	1
8	3366	41.923223131471	0
8	3372	41.923753131471	1
8	3378	41.923763234175	3
8	3385	41.923797234175	1
8	3388	41.923807234175	0
8	3396	41.923853234175	1
8	3406	41.923863336915	3
8	3415	41.923897336915	1
8	3435	42.000000055305	3
8	3440	42.000530055305	1
8	3443	42.000540055305	0
8	3451	42.000574055305	1
8	3457	42.000584165973	3
8	3464	42.000630165973	1
8	3471	42.000640165973	0
8	3481	42.000674165973	1
8	3533	42.923223131471	0
8	3539	42.923753131471	1
8	3545	42.923763337499	3
8	3552	42.923797337499	1
8	3555	42.923807337499	0
8	3563	42.923853337499	1
8	3573	42.923863543562	3
8	3582	42.923897543562	1
8	3602	43.000000106966	3
8	3607	43.000530106966	1
8	3610	43.000540106966	0
8	3618	43.000574106966	1
8	3624	43.000584320957	3
8	3631	43.000630320957	1
8	3638	43.000640320957	0
8	3648	43.000674320957	1
8	3700	43.923223131471	0
8	3706	43.923753131471	1
8	3712	43.923763440824	3
8	3719	43.923797440824	1
8	3722	43.923807440824	0
8	3730	43.923853440824	1
8	3740	43.923863750213	3
8	3749	43.923897750213	1
8	3769	44.000000158629	3
8	3774	44.000530158629	1
8	3777	44.000540158629	0
8	3785	44.000574158629	1
8	3791	44.000584475945	3
8	3798	44.000630475945	1
8	3805	44.000640475945	0
8	3815	44.000674475945	1
8	3867	44.923223131471	0
8	3873	44.923753131471	1
8	3879	44.923763544149	3
8	3886	44.923797544149	1
8	3889	44.923807544149	0
8	3897	44.923853544149	1
8	3907	44.923863956862	3
8	3916	44.923897956862	1
8	3936	45.000000210292	3
8	3941	45.000530210292	1
8	3944	45.000540210292	0
8	3952	45.000574210292	1
8	3958	45.000584630934	3
8	3965	45.000630630934	1
8	3972	45.000640630934	0
8	3982	45.000674630934	1
8	4034	45.923223131471	0
8	4040	45.923753131471	1
8	4046	45.923763647475	3
8	4053	45.923797647475	1
8	4056	45.923807647475	0
8	4064	45.923853647475	1
8	4074	45.923864163514	3
8	4083	45.923898163514	1
8	4103	46.000000261954	3
8	4108	46.000530261954	1
8	4111	46.000540261954	0
8	4119	46.000574261954	1
8	4125	46.000584785921	3
8	4132	46.000630785921	1
8	4139	46.000640785921	0
8	4149	46.000674785921	1
8	4201	46.923223131471	0
8	4207	46.923753131471	1
8	4213	46.923763750801	3
8	4220	46.923797750801	1
8	4223	46.923807750801	0
8	4231	46.923853750801	1
8	4241	46.923864370166	3
8	4250	46.923898370166	1
8	4270	47.000000313617	3
8	4275	47.000530313617	1
8	4278	47.000540313617	0
8	4286	47.000574313617	1
8	4292	47.000584940909	3
8	4299	47.000630940909	1
8	4306	47.000640940909	0
8	4316	47.000674940909	1
8	4368	47.923223131471	0
8	4374	47.923753131471	1
8	4380	47.923763854126	3
8	4387	47.923797854126	1
8	4390	47.923807854126	0
8	4398	47.923853854126	1
8	4408	47.923864576817	3
8	4417	47.923898576817	1
8	4437	48.00000036528	3
8	4442	48.00053036528	1
8	4445	48.00054036528	0
8	4453	48.00057436528	1
8	4459	48.000585095898	3
8	4466	48.000631095898	1
8	4473	48.000641095898	0
8	4483	48.000675095898	1
8	4535	48.923223131471	0
8	4541	48.923753131471	1
8	4550	48.924267131471	0
8	4556	48.924797131471	1
8	4565	48.926071131471	0
8	4571	48.926601131471	1
8	4580	48.927555131471	0
8	4586	48.928085131471	1
8	4595	48.931759131471	0
8	4601	48.932289131471	1
8	4614	48.939903131471	0
8	4620	48.940433131471	1
8	4630	48.949507131471	0
8	4636	48.950037131471	1
8	4646	48.950491131471	0
8	4652	48.950537131471	1
8	4661	48.951111131471	0
8	4667	48.951157131471	1
8	4673	48.951167960308	3
8	4681	48.951201960308	1
8	4736	49.923223131471	0
8	4742	49.923753131471	1
8	4750	49.924627131471	0
8	4756	49.925157131471	1
8	4764	49.927491131471	0
8	4770	49.928021131471	1
8	4778	49.928475131471	0
8	4784	49.929005131471	1
8	4794	49.936559131471	0
8	4800	49.937089131471	1
8	4810	49.943203131471	0
8	4816	49.943733131471	1
8	4825	49.950487131471	0
8	4831	49.951017131471	1
8	4839	49.951591131471	0
8	4845	49.951637131471	1
8	4853	49.952351131471	0
8	4859	49.952397131471	1
8	4868	49.953931131471	0
8	4874	49.953977131471	1
8	4882	49.957151131471	0
8	4888	49.957197131471	1
8	4900	49.966291131471	0
8	4906	49.966337131471	1
8	4915	49.971391131471	0
8	4921	49.971437131471	1
8	4929	49.975131131471	0
8	4935	49.975177131471	1
8	4991	50.923223131471	0
8	4997	50.923753131471	1
8	5006	50.940527131471	0
8	5012	50.941057131471	1
8	5021	50.956891131471	0
8	5027	50.957421131471	1
8	5036	50.974895131471	0
8	5042	50.975425131471	1
8	5050	50.980819131471	0
8	5056	50.981349131471	1
8	5070	51.000803131471	0
8	5076	51.001333131471	1
8	5085	51.016507131471	0
8	5091	51.017037131471	1
8	5099	51.020011131471	0
8	5105	51.020057131471	1
8	5115	51.040551131471	0
8	5121	51.040597131471	1
8	5130	51.052651131471	0
8	5136	51.052697131471	1
8	5144	51.062011131471	0
8	5150	51.062057131471	1
8	5160	51.079931131471	0
8	5166	51.079977131471	1
8	5175	51.092491131471	0
8	5181	51.092537131471	1
8	5194	51.109491131471	0
8	5200	51.109537131471	1
8	5246	51.923223131471	0
8	5252	51.923753131471	1
8	5260	51.926987131471	0
8	5266	51.927517131471	1
8	5276	51.946211131471	0
8	5282	51.946741131471	1
8	5290	51.949915131471	0
8	5296	51.950445131471	1
8	5304	51.952839131471	0
8	5310	51.953369131471	1
8	5318	51.954063131471	0
8	5324	51.954593131471	1
8	5335	51.964067131471	0
8	5341	51.964597131471	1
8	5351	51.983911131471	0
8	5357	51.983957131471	1
8	5370	52.001831131471	0
8	5376	52.001877131471	1
8	5385	52.019691131471	0
8	5391	52.019737131471	1
8	5399	52.022171131471	0
8	5405	52.022217131471	1
8	5414	52.031211131471	0
8	5420	52.031257131471	1
8	5430	52.043251131471	0
8	5436	52.043297131471	1
8	5445	52.056851131471	0
8	5451	52.056897131471	1
8	5501	52.923223131471	0
8	5507	52.923753131471	1
8	5515	52.928507131471	0
8	5521	52.929037131471	1
8	5531	52.939371131471	0
8	5537	52.939901131471	1
8	5546	52.955355131471	0
8	5552	52.955885131471	1
8	5560	52.958499131471	0
8	5566	52.959029131471	1
8	5574	52.965743131471	0
8	5581	52.966273131471	1
8	5590	52.975847131471	0
8	5597	52.976377131471	1
8	5605	52.982311131471	0
8	5611	52.982357131471	1
8	5621	52.992951131471	0
8	5627	52.992997131471	1
8	5640	53.009871131471	0
8	5646	53.009917131471	1
8	5655	53.023931131471	0
8	5661	53.023977131471	1
8	5669	53.027111131471	0
8	5675	53.027157131471	1
8	5685	53.039071131471	0
8	5691	53.039117131471	1
8	5699	53.040031131471	0
8	5705	53.040077131471	1
8	5756	53.923223131471	0
8	5762	53.923753131471	1
8	5770	53.932707131471	0
8	5776	53.933237131471	1
8	5785	53.937571131471	0
8	5791	53.938101131471	1
8	5801	53.953875131471	0
8	5807	53.954405131471	1
8	5815	53.957919131471	0
8	5821	53.958449131471	1
8	5829	53.960863131471	0
8	5835	53.961393131471	1
8	5845	53.968567131471	0
8	5851	53.969097131471	1
8	5861	53.989631131471	0
8	5867	53.989677131471	1
8	5875	53.992351131471	0
8	5881	53.992397131471	1
8	5895	54.007191131471	0
8	5901	54.007237131471	1
8	5910	54.025051131471	0
8	5916	54.025097131471	1
8	5925	54.041431131471	0
8	5931	54.041477131471	1
8	5939	54.045891131471	0
8	5945	54.045937131471	1
8	5954	54.053651131471	0
8	5960	54.053697131471	1
8	6011	54.923223131471	0
8	6017	54.923753131471	1
8	6026	54.943507131471	0
8	6032	54.944037131471	1
8	6041	54.964371131471	0
8	6047	54.964901131471	1
8	6056	54.980515131471	0
8	6062	54.981045131471	1
8	6070	54.985919131471	0
8	6076	54.986449131471	1
8	6090	55.000963131471	0
8	6096	55.001493131471	1
8	6105	55.021647131471	0
8	6111	55.022177131471	1
8	6119	55.028191131471	0
8	6125	55.028237131471	1
8	6135	55.042851131471	0
8	6141	55.042897131471	1
8	6150	55.063431131471	0
8	6156	55.063477131471	1
8	6165	55.077591131471	0
8	6171	55.077637131471	1
8	6180	55.091911131471	0
8	6186	55.091957131471	1
8	6199	55.106591131471	0
8	6205	55.106637131471	1
8	6214	55.117831131471	0
8	6220	55.117877131471	1
8	6266	55.923223131471	0
8	6272	55.923753131471	1
8	6281	55.936267131471	0
8	6287	55.936797131471	1
8	6295	55.941231131471	0
8	6301	55.941761131471	1
8	6309	55.944715131471	0
8	6315	55.945245131471	1
8	6326	55.959319131471	0
8	6332	55.959849131471	1
8	6341	55.980103131471	0
8	6347	55.980633131471	1
8	6355	55.989247131471	0
8	6361	55.989777131471	1
8	6375	56.002711131471	0
8	6381	56.002757131471	1
8	6390	56.016211131471	0
8	6396	56.016257131471	1
8	6405	56.028811131471	0
8	6411	56.028857131471	1
8	6419	56.038711131471	0
8	6425	56.038757131471	1
8	6435	56.054251131471	0
8	6441	56.054297131471	1
8	6450	56.065171131471	0
8	6456	56.065217131471	1
8	6465	56.084891131471	0
8	6471	56.084937131471	1
8	6521	56.923223131471	0
8	6527	56.923753131471	1
8	6536	56.940367131471	0
8	6542	56.940897131471	1
8	6550	56.947231131471	0
8	6556	56.947761131471	1
8	6565	56.951435131471	0
8	6571	56.951965131471	1
8	6579	56.955119131471	0
8	6585	56.955649131471	1
8	6596	56.974823131471	0
8	6602	56.975353131471	1
8	6611	56.986367131471	0
8	6617	56.986897131471	1
8	6626	56.998671131471	0
8	6632	56.998717131471	1
8	6645	57.009751131471	0
8	6651	57.009797131471	1
8	6660	57.026031131471	0
8	6666	57.026077131471	1
8	6674	57.034031131471	0
8	6680	57.034077131471	1
8	6688	57.035631131471	0
8	6694	57.035677131471	1
8	6703	57.041711131471	0
8	6709	57.041757131471	1
8	6720	57.060231131471	0
8	6726	57.060277131471	1
8	6776	57.923223131471	0
8	6782	57.923753131471	1
8	6791	57.938547131471	0
8	6797	57.939077131471	1
8	6806	57.958191131471	0
8	6812	57.958721131471	1
8	6821	57.976435131471	0
8	6827	57.976965131471	1
8	6836	57.992579131471	0
8	6842	57.993109131471	1
8	6855	58.009283131471	0
8	6861	58.009813131471	1
8	6870	58.025547131471	0
8	6876	58.026077131471	1
8	6884	58.034151131471	0
8	6890	58.034197131471	1
8	6900	58.045071131471	0
8	6906	58.045117131471	1
8	6914	58.053791131471	0
8	6920	58.053837131471	1
8	6929	58.057911131471	0
8	6935	58.057957131471	1
8	6944	58.066511131471	0
8	6950	58.066557131471	1
8	6958	58.067871131471	0
8	6964	58.067917131471	1
8	6973	58.074831131471	0
8	6979	58.074877131471	1
8	7031	58.923223131471	0
8	7037	58.923753131471	1
8	7046	58.939987131471	0
8	7052	58.940517131471	1
8	7061	58.959311131471	0
8	7067	58.959841131471	1
8	7075	58.961795131471	0
8	7081	58.962325131471	1
8	7089	58.963179131471	0
8	7095	58.963709131471	1
8	7106	58.976803131471	0
8	7112	58.977333131471	1
8	7120	58.982167131471	0
8	7126	58.982697131471	1
8	7136	58.998231131471	0
8	7142	58.998277131471	1
8	7150	58.999091131471	0
8	7156	58.999137131471	1
8	7170	59.014591131471	0
8	7176	59.014637131471	1
8	7184	59.023911131471	0
8	7190	59.023957131471	1
8	7199	59.029851131471	0
8	7205	59.029897131471	1
8	7213	59.033931131471	0
8	7219	59.033977131471	1
8	7230	59.051951131471	0
8	7236	59.051997131471	1
8	7286	59.923223131471	0
9	0	0	1
9	1923	32.923223555399	2
9	1928	32.923273555399	1
9	1982	33.923223503736	3
9	1987	33.923273503736	1
9	1997	33.923843503736	0
9	2003	33.923893503736	1
9	2013	33.923904248199	3
9	2021	33.923938248199	1
9	2029	33.924468248169	3
9	2034	33.924998248169	1
9	2037	33.925008248169	0
9	2045	33.925042248169	1
9	2051	33.925052992511	3
9	2058	33.925098992511	1
9	2065	33.925108992511	0
9	2075	33.925142992511	1
9	2097	34	0
9	2103	34.00053	1
9	2109	34.000540736568	3
9	2116	34.000574736568	1
9	2119	34.000584736568	0
9	2127	34.000630736568	1
9	2137	34.000641473101	3
9	2146	34.000675473101	1
9	2199	34.923223452073	3
9	2204	34.923753452073	1
9	2207	34.923763452073	0
9	2215	34.923797452073	1
9	2221	34.923808093219	3
9	2228	34.923854093219	1
9	2235	34.923864093219	0
9	2245	34.923898093219	1
9	2264	35	0
9	2270	35.00053	1
9	2276	35.000540633242	3
9	2283	35.000574633242	1
9	2286	35.000584633242	0
9	2294	35.000630633242	1
9	2304	35.000641266449	3
9	2313	35.000675266449	1
9	2366	35.92322340041	3
9	2371	35.92375340041	1
9	2374	35.92376340041	0
9	2382	35.92379740041	1
9	2388	35.92380793823	3
9	2395	35.92385393823	1
9	2402	35.92386393823	0
9	2412	35.92389793823	1
9	2431	36	0
9	2437	36.00053	1
9	2443	36.000540529917	3
9	2450	36.000574529917	1
9	2453	36.000584529917	0
9	2461	36.000630529917	1
9	2471	36.000641059798	3
9	2480	36.000675059798	1
9	2533	36.923223348747	3
9	2538	36.923753348747	1
9	2541	36.923763348747	0
9	2549	36.923797348747	1
9	2555	36.923807783241	3
9	2562	36.923853783241	1
9	2569	36.923863783241	0
9	2579	36.923897783241	1
9	2598	37	0
9	2604	37.00053	1
9	2610	37.000540426592	3
9	2617	37.000574426592	1
9	2620	37.000584426592	0
9	2628	37.000630426592	1
9	2638	37.000640853147	3
9	2647	37.000674853147	1
9	2700	37.923223297084	3
9	2705	37.923753297084	1
9	2708	37.923763297084	0
9	2716	37.923797297084	1
9	2722	37.923807628252	3
9	2729	37.923853628252	1
9	2736	37.923863628252	0
9	2746	37.923897628252	1
9	2765	38	0
9	2771	38.00053	1
9	2777	38.000540323266	3
9	2784	38.000574323266	1
9	2787	38.000584323266	0
9	2795	38.000630323266	1
9	2805	38.000640646497	3
9	2814	38.000674646497	1
9	2867	38.923223245421	3
9	2872	38.923753245421	1
9	2875	38.923763245421	0
9	2883	38.923797245421	1
9	2889	38.923807473263	3
9	2896	38.923853473263	1
9	2903	38.923863473263	0
9	2913	38.923897473263	1
9	2932	39	0
9	2938	39.00053	1
9	2944	39.00054021994	3
9	2951	39.00057421994	1
9	2954	39.00058421994	0
9	2962	39.00063021994	1
9	2972	39.000640439845	3
9	2981	39.000674439845	1
9	3034	39.923223193759	3
9	3039	39.923753193759	1
9	3042	39.923763193759	0
9	3050	39.923797193759	1
9	3056	39.923807318276	3
9	3063	39.923853318276	1
9	3070	39.923863318276	0
9	3080	39.923897318276	1
9	3099	40	0
9	3105	40.00053	1
9	3111	40.000540116614	3
9	3118	40.000574116614	1
9	3121	40.000584116614	0
9	3129	40.000630116614	1
9	3139	40.000640233193	3
9	3148	40.000674233193	1
9	3201	40.923223142096	3
9	3206	40.923753142096	1
9	3209	40.923763142096	0
9	3217	40.923797142096	1
9	3223	40.923807163288	3
9	3230	40.923853163288	1
9	3237	40.923863163288	0
9	3247	40.923897163288	1
9	3266	41	0
9	3272	41.00053	1
9	3278	41.000540016094	3
9	3285	41.000574016094	1
9	3288	41.000584016094	0
9	3296	41.000630016094	1
9	3306	41.00064003217	3
9	3315	41.00067403217	1
9	3368	41.923223182809	3
9	3373	41.923753182809	1
9	3376	41.923763182809	0
9	3384	41.923797182809	1
9	3390	41.923807285544	3
9	3397	41.923853285544	1
9	3404	41.923863285544	0
9	3414	41.923897285544	1
9	3433	42	0
9	3439	42.00053	1
9	3445	42.000540110638	3
9	3452	42.000574110638	1
9	3455	42.000584110638	0
9	3463	42.000630110638	1
9	3473	42.000640221311	3
9	3482	42.000674221311	1
9	3535	42.923223234471	3
9	3540	42.923753234471	1
9	3543	42.923763234471	0
9	3551	42.923797234471	1
9	3557	42.923807440529	3
9	3564	42.923853440529	1
9	3571	42.923863440529	0
9	3581	42.923897440529	1
9	3600	43	0
9	3606	43.00053	1
9	3612	43.00054021396	3
9	3619	43.00057421396	1
9	3622	43.00058421396	0
9	3630	43.00063021396	1
9	3640	43.000640427957	3
9	3649	43.000674427957	1
9	3702	43.923223286134	3
9	3707	43.923753286134	1
9	3710	43.923763286134	0
9	3718	43.923797286134	1
9	3724	43.923807595517	3
9	3731	43.923853595517	1
9	3738	43.923863595517	0
9	3748	43.923897595517	1
9	3767	44	0
9	3773	44.00053	1
9	3779	44.000540317286	3
9	3786	44.000574317286	1
9	3789	44.000584317286	0
9	3797	44.000630317286	1
9	3807	44.000640634607	3
9	3816	44.000674634607	1
9	3869	44.923223337796	3
9	3874	44.923753337796	1
9	3877	44.923763337796	0
9	3885	44.923797337796	1
9	3891	44.923807750504	3
9	3898	44.923853750504	1
9	3905	44.923863750504	0
9	3915	44.923897750504	1
9	3934	45	0
9	3940	45.00053	1
9	3946	45.000540420612	3
9	3953	45.000574420612	1
9	3956	45.000584420612	0
9	3964	45.000630420612	1
9	3974	45.000640841259	3
9	3983	45.000674841259	1
9	4036	45.923223389459	3
9	4041	45.923753389459	1
9	4044	45.923763389459	0
9	4052	45.923797389459	1
9	4058	45.923807905493	3
9	4065	45.923853905493	1
9	4072	45.923863905493	0
9	4082	45.923897905493	1
9	4101	46	0
9	4107	46.00053	1
9	4113	46.000540523936	3
9	4120	46.000574523936	1
9	4123	46.000584523936	0
9	4131	46.000630523936	1
9	4141	46.000641047909	3
9	4150	46.000675047909	1
9	4203	46.923223441122	3
9	4208	46.923753441122	1
9	4211	46.923763441122	0
9	4219	46.923797441122	1
9	4225	46.923808060482	3
9	4232	46.923854060482	1
9	4239	46.923864060482	0
9	4249	46.923898060482	1
9	4268	47	0
9	4274	47.00053	1
9	4280	47.000540627262	3
9	4287	47.000574627262	1
9	4290	47.000584627262	0
9	4298	47.000630627262	1
9	4308	47.000641254559	3
9	4317	47.000675254559	1
9	4370	47.923223492785	3
9	4375	47.923753492785	1
9	4378	47.923763492785	0
9	4386	47.923797492785	1
9	4392	47.92380821547	3
9	4399	47.92385421547	1
9	4406	47.92386421547	0
9	4416	47.92389821547	1
9	4435	48	0
9	4441	48.00053	1
9	4447	48.000540730588	3
9	4454	48.000574730588	1
9	4457	48.000584730588	0
9	4465	48.000630730588	1
9	4475	48.000641461211	3
9	4484	48.000675461211	1
9	4537	48.923223544447	3
9	4542	48.923753544447	1
9	4552	48.924267544501	3
9	4557	48.924797544501	1
9	4567	48.926071544594	3
9	4572	48.926601544594	1
9	4582	48.927555544671	3
9	4587	48.928085544671	1
9	4597	48.931759544888	3
9	4602	48.932289544888	1
9	4616	48.939903545309	3
9	4621	48.940433545309	1
9	4632	48.949507545805	3
9	4637	48.950037545805	1
9	4648	48.950491545856	3
9	4653	48.950537545856	1
9	4663	48.951111545888	3
9	4668	48.951157545888	1
9	4671	48.951167545888	0
9	4680	48.951201545888	1
10	0	0	1
11	0	0	1
12	0	0	31
12	4546	48.923808131471	63
12	4561	48.924852131471	127
12	4576	48.926656131471	255
12	4591	48.928140131471	511
12	4606	48.932344131471	1023
12	4641	48.950092131471	31
12	4658	48.950592131471	63
12	4682	48.951201960308	31
12	4746	49.923808131471	63
12	4760	49.925212131471	127
12	4774	49.928076131471	255
12	4788	49.929060131471	511
12	4804	49.937144131471	1023
12	4835	49.951072131471	31
12	4850	49.951692131471	63
12	4864	49.952452131471	127
12	4879	49.954032131471	255
12	4893	49.957252131471	511
12	4911	49.966392131471	1023
13	0	0	31
14	0	0	31
15	0	0	31
16	22	0.923223131471	1454
16	84	1.923223131471	1454
16	143	2.923223131471	1454
16	202	3.923223131471	1454
16	261	4.923223131471	1454
16	320	5.923223131471	1454
16	379	6.923223131471	1454
16	438	7.923223131471	1454
16	497	8.923223131471	1454
16	556	9.923223131471	1454
16	615	10.923223131471	1454
16	674	11.923223131471	1454
16	733	12.923223131471	1454
16	792	13.923223131471	1454
16	851	14.923223131471	1454
16	910	15.923223131471	1454
16	969	16.923223131471	1454
16	1028	17.923223131471	1454
16	1087	18.923223131471	1454
16	1146	19.923223131471	1454
16	1205	20.923223131471	1454
16	1264	21.923223131471	1454
16	1323	22.923223131471	1454
16	1382	23.923223131471	1454
16	1441	24.923223131471	1454
16	1500	25.923223131471	1454
16	1559	26.923223131471	1454
16	1618	27.923223131471	1454
16	1677	28.923223131471	1454
16	1736	29.923223131471	1454
16	1795	30.923223131471	1454
16	1854	31.923223131471	1454
16	1913	32.923223131471	1454
16	1972	33.923223131471	1454
16	2190	34.923223131471	1454
16	2357	35.923223131471	1454
16	2524	36.923223131471	1454
16	2691	37.923223131471	1454
16	2858	38.923223131471	1454
16	3025	39.923223131471	1454
16	3192	40.923223131471	1454
16	3359	41.923223131471	1454
16	3526	42.923223131471	1454
16	3693	43.923223131471	1454
16	3860	44.923223131471	1454
16	4027	45.923223131471	1454
16	4194	46.923223131471	1454
16	4361	47.923223131471	1454
16	4528	48.923223131471	1454
16	4729	49.923223131471	1454
16	4984	50.923223131471	1454
16	5239	51.923223131471	1454
16	5494	52.923223131471	1454
16	5749	53.923223131471	1454
16	6004	54.923223131471	1454
16	6259	55.923223131471	1454
16	6514	56.923223131471	1454
16	6769	57.923223131471	1454
16	7024	58.923223131471	1454
16	7279	59.923223131471	1454
17	24	0.923223131471	1462
17	86	1.923223131471	1462
17	145	2.923223131471	1462
17	204	3.923223131471	1462
17	263	4.923223131471	1462
17	322	5.923223131471	1462
17	381	6.923223131471	1462
17	440	7.923223131471	1462
17	499	8.923223131471	1462
17	558	9.923223131471	1462
17	617	10.923223131471	1462
17	676	11.923223131471	1462
17	735	12.923223131471	1462
17	794	13.923223131471	1462
17	853	14.923223131471	1462
17	912	15.923223131471	1462
17	971	16.923223131471	1462
17	1030	17.923223131471	1462
17	1089	18.923223131471	1462
17	1148	19.923223131471	1462
17	1207	20.923223131471	1462
17	1266	21.923223131471	1462
17	1325	22.923223131471	1462
17	1384	23.923223131471	1462
17	1443	24.923223131471	1462
17	1502	25.923223131471	1462
17	1561	26.923223131471	1462
17	1620	27.923223131471	1462
17	1679	28.923223131471	1462
17	1738	29.923223131471	1462
17	1797	30.923223131471	1462
17	1856	31.923223131471	1462
17	1915	32.923223131471	1462
17	1974	33.923223131471	1462
17	2191	34.923223131471	1462
17	2358	35.923223131471	1462
17	2525	36.923223131471	1462
17	2692	37.923223131471	1462
17	2859	38.923223131471	1462
17	3026	39.923223131471	1462
17	3193	40.923223131471	1462
17	3360	41.923223131471	1462
17	3527	42.923223131471	1462
17	3694	43.923223131471	1462
17	3861	44.923223131471	1462
17	4028	45.923223131471	1462
17	4195	46.923223131471	1462
17	4362	47.923223131471	1462
17	4529	48.923223131471	1462
17	4730	49.923223131471	1462
17	4985	50.923223131471	1462
17	5240	51.923223131471	1462
17	5495	52.923223131471	1462
17	5750	53.923223131471	1462
17	6005	54.923223131471	1462
17	6260	55.923223131471	1462
17	6515	56.923223131471	1462
17	6770	57.923223131471	1462
17	7025	58.923223131471	1462
17	7280	59.923223131471	1462
18	25	0.923223131471	28
18	85	1.923223131471	28
18	144	2.923223131471	28
18	205	3.923223131471	28
18	262	4.923223131471	28
18	321	5.923223131471	28
18	382	6.923223131471	28
18	439	7.923223131471	28
18	498	8.923223131471	28
18	559	9.923223131471	28
18	616	10.923223131471	28
18	675	11.923223131471	28
18	736	12.923223131471	28
18	793	13.923223131471	28
18	852	14.923223131471	28
18	913	15.923223131471	28
18	970	16.923223131471	28
18	1029	17.923223131471	28
18	1090	18.923223131471	28
18	1147	19.923223131471	28
18	1206	20.923223131471	28
18	1267	21.923223131471	28
18	1324	22.923223131471	28
18	1383	23.923223131471	28
18	1444	24.923223131471	28
18	1501	25.923223131471	28
18	1560	26.923223131471	28
18	1621	27.923223131471	28
18	1678	28.923223131471	28
18	1737	29.923223131471	28
18	1798	30.923223131471	28
18	1855	31.923223131471	28
18	1914	32.923223131471	28
18	1975	33.923223131471	28
19	27	0.923223131471	36
19	89	1.923223131471	36
19	148	2.923223131471	36
19	207	3.923223131471	36
19	266	4.923223131471	36
19	325	5.923223131471	36
19	384	6.923223131471	36
19	443	7.923223131471	36
19	502	8.923223131471	36
19	561	9.923223131471	36
19	620	10.923223131471	36
19	679	11.923223131471	36
19	738	12.923223131471	36
19	797	13.923223131471	36
19	856	14.923223131471	36
19	915	15.923223131471	36
19	974	16.923223131471	36
19	1033	17.923223131471	36
19	1092	18.923223131471	36
19	1151	19.923223131471	36
19	1210	20.923223131471	36
19	1269	21.923223131471	36
19	1328	22.923223131471	36
19	1387	23.923223131471	36
19	1446	24.923223131471	36
19	1505	25.923223131471	36
19	1564	26.923223131471	36
19	1623	27.923223131471	36
19	1682	28.923223131471	36
19	1741	29.923223131471	36
19	1800	30.923223131471	36
19	1859	31.923223131471	36
19	1918	32.923223131471	36
19	1977	33.923223131471	36
19	2009	33.923893875969	1490
19	2194	34.923223131471	1490
19	2361	35.923223131471	1490
19	2528	36.923223131471	1490
19	2695	37.923223131471	1490
19	2862	38.923223131471	1490
19	3029	39.923223131471	1490
19	3196	40.923223131471	1490
19	3363	41.923223131471	1490
19	3530	42.923223131471	1490
19	3697	43.923223131471	1490
19	3864	44.923223131471	1490
19	4031	45.923223131471	1490
19	4198	46.923223131471	1490
19	4365	47.923223131471	1490
19	4532	48.923223131471	1490
19	4733	49.923223131471	1490
19	4988	50.923223131471	1490
19	5243	51.923223131471	1490
19	5498	52.923223131471	1490
19	5753	53.923223131471	1490
19	6008	54.923223131471	1490
19	6263	55.923223131471	1490
19	6518	56.923223131471	1490
19	6773	57.923223131471	1490
19	7028	58.923223131471	1490
19	7283	59.923223131471	1490
20	27	0.923223131471	64
20	89	1.923223131471	64
20	148	2.923223131471	64
20	207	3.923223131471	64
20	266	4.923223131471	64
20	325	5.923223131471	64
20	384	6.923223131471	64
20	443	7.923223131471	64
20	502	8.923223131471	64
20	561	9.923223131471	64
20	620	10.923223131471	64
20	679	11.923223131471	64
20	738	12.923223131471	64
20	797	13.923223131471	64
20	856	14.923223131471	64
20	915	15.923223131471	64
20	974	16.923223131471	64
20	1033	17.923223131471	64
20	1092	18.923223131471	64
20	1151	19.923223131471	64
20	1210	20.923223131471	64
20	1269	21.923223131471	64
20	1328	22.923223131471	64
20	1387	23.923223131471	64
20	1446	24.923223131471	64
20	1505	25.923223131471	64
20	1564	26.923223131471	64
20	1623	27.923223131471	64
20	1682	28.923223131471	64
20	1741	29.923223131471	64
20	1800	30.923223131471	64
20	1859	31.923223131471	64
20	1918	32.923223131471	64
20	1977	33.923223131471	64
20	2009	33.923893875969	1518
20	2194	34.923223131471	1518
20	2361	35.923223131471	1518
20	2528	36.923223131471	1518
20	2695	37.923223131471	1518
20	2862	38.923223131471	1518
20	3029	39.923223131471	1518
20	3196	40.923223131471	1518
20	3363	41.923223131471	1518
20	3530	42.923223131471	1518
20	3697	43.923223131471	1518
20	3864	44.923223131471	1518
20	4031	45.923223131471	1518
20	4198	46.923223131471	1518
20	4365	47.923223131471	1518
20	4532	48.923223131471	1518
20	4733	49.923223131471	1518
20	4988	50.923223131471	1518
20	5243	51.923223131471	1518
20	5498	52.923223131471	1518
20	5753	53.923223131471	1518
20	6008	54.923223131471	1518
20	6263	55.923223131471	1518
20	6518	56.923223131471	1518
20	6773	57.923223131471	1518
20	7028	58.923223131471	1518
20	7283	59.923223131471	1518
21	27	0.923223131471	1
21	29	0.923223131471	0
21	89	1.923223131471	1
21	91	1.923223131471	0
21	148	2.923223131471	1
21	150	2.923223131471	0
21	207	3.923223131471	1
21	209	3.923223131471	0
21	266	4.923223131471	1
21	268	4.923223131471	0
21	325	5.923223131471	1
21	327	5.923223131471	0
21	384	6.923223131471	1
21	386	6.923223131471	0
21	443	7.923223131471	1
21	445	7.923223131471	0
21	502	8.923223131471	1
21	504	8.923223131471	0
21	561	9.923223131471	1
21	563	9.923223131471	0
21	620	10.923223131471	1
21	622	10.923223131471	0
21	679	11.923223131471	1
21	681	11.923223131471	0
21	738	12.923223131471	1
21	740	12.923223131471	0
21	797	13.923223131471	1
21	799	13.923223131471	0
21	856	14.923223131471	1
21	858	14.923223131471	0
21	915	15.923223131471	1
21	917	15.923223131471	0
21	974	16.923223131471	1
21	976	16.923223131471	0
21	1033	17.923223131471	1
21	1035	17.923223131471	0
21	1092	18.923223131471	1
21	1094	18.923223131471	0
21	1151	19.923223131471	1
21	1153	19.923223131471	0
21	1210	20.923223131471	1
21	1212	20.923223131471	0
21	1269	21.923223131471	1
21	1271	21.923223131471	0
21	1328	22.923223131471	1
21	1330	22.923223131471	0
21	1387	23.923223131471	1
21	1389	23.923223131471	0
21	1446	24.923223131471	1
21	1448	24.923223131471	0
21	1505	25.923223131471	1
21	1507	25.923223131471	0
21	1564	26.923223131471	1
21	1566	26.923223131471	0
21	1623	27.923223131471	1
21	1625	27.923223131471	0
21	1682	28.923223131471	1
21	1684	28.923223131471	0
21	1741	29.923223131471	1
21	1743	29.923223131471	0
21	1800	30.923223131471	1
21	1802	30.923223131471	0
21	1859	31.923223131471	1
21	1861	31.923223131471	0
21	1918	32.923223131471	1
21	1920	32.923223131471	0
21	1977	33.923223131471	1
21	1979	33.923223131471	0
21	2009	33.923893875969	1
21	2026	33.924467875969	0
21	2194	34.923223131471	1
21	2196	34.923223131471	0
21	2361	35.923223131471	1
21	2363	35.923223131471	0
21	2528	36.923223131471	1
21	2530	36.923223131471	0
21	2695	37.923223131471	1
21	2697	37.923223131471	0
21	2862	38.923223131471	1
21	2864	38.923223131471	0
21	3029	39.923223131471	1
21	3031	39.923223131471	0
21	3196	40.923223131471	1
21	3198	40.923223131471	0
21	3363	41.923223131471	1
21	3365	41.923223131471	0
21	3530	42.923223131471	1
21	3532	42.923223131471	0
21	3697	43.923223131471	1
21	3699	43.923223131471	0
21	3864	44.923223131471	1
21	3866	44.923223131471	0
21	4031	45.923223131471	1
21	4033	45.923223131471	0
21	4198	46.923223131471	1
21	4200	46.923223131471	0
21	4365	47.923223131471	1
21	4367	47.923223131471	0
21	4532	48.923223131471	1
21	4534	48.923223131471	0
21	4733	49.923223131471	1
21	4735	49.923223131471	0
21	4988	50.923223131471	1
21	4990	50.923223131471	0
21	5243	51.923223131471	1
21	5245	51.923223131471	0
21	5498	52.923223131471	1
21	5500	52.923223131471	0
21	5753	53.923223131471	1
21	5755	53.923223131471	0
21	6008	54.923223131471	1
21	6010	54.923223131471	0
21	6263	55.923223131471	1
21	6265	55.923223131471	0
21	6518	56.923223131471	1
21	6520	56.923223131471	0
21	6773	57.923223131471	1
21	6775	57.923223131471	0
21	7028	58.923223131471	1
21	7030	58.923223131471	0
21	7283	59.923223131471	1
21	7285	59.923223131471	0
22	27	0.923223131471	4
22	89	1.923223131471	6
22	148	2.923223131471	24
22	207	3.923223131471	26
22	266	4.923223131471	6
22	325	5.923223131471	23
22	384	6.923223131471	24
22	443	7.923223131471	5
22	502	8.923223131471	13
22	561	9.923223131471	9
22	620	10.923223131471	19
22	679	11.923223131471	19
22	738	12.923223131471	30
22	797	13.923223131471	15
22	856	14.923223131471	18
22	915	15.923223131471	24
22	974	16.923223131471	19
22	1033	17.923223131471	19
22	1092	18.923223131471	14
22	1151	19.923223131471	0
22	1210	20.923223131471	9
22	1269	21.923223131471	31
22	1328	22.923223131471	31
22	1387	23.923223131471	20
22	1446	24.923223131471	3
22	1505	25.923223131471	11
22	1564	26.923223131471	23
22	1623	27.923223131471	2
22	1682	28.923223131471	0
22	1741	29.923223131471	21
22	1800	30.923223131471	6
22	1859	31.923223131471	20
22	1918	32.923223131471	15
22	1977	33.923223131471	9
22	2009	33.923893875969	24
22	2194	34.923223131471	0
22	2361	35.923223131471	15
22	2528	36.923223131471	26
22	2695	37.923223131471	21
22	2862	38.923223131471	5
22	3029	39.923223131471	31
22	3196	40.923223131471	17
22	3363	41.923223131471	16
22	3530	42.923223131471	10
22	3697	43.923223131471	21
22	3864	44.923223131471	10
22	4031	45.923223131471	31
22	4198	46.923223131471	25
22	4365	47.923223131471	18
22	4532	48.923223131471	2
22	4546	48.923808131471	16
22	4561	48.924852131471	54
22	4576	48.926656131471	38
22	4591	48.928140131471	174
22	4606	48.932344131471	371
22	4625	48.940488131471	444
22	4641	48.950092131471	13
22	4658	48.950592131471	24
22	4733	49.923223131471	30
22	4746	49.923808131471	34
22	4760	49.925212131471	107
22	4774	49.928076131471	13
22	4788	49.929060131471	368
22	4804	49.937144131471	296
22	4820	49.943788131471	328
22	4835	49.951072131471	19
22	4850	49.951692131471	31
22	4864	49.952452131471	72
22	4879	49.954032131471	154
22	4893	49.957252131471	450
22	4911	49.966392131471	248
22	4926	49.971492131471	180
22	4988	50.923223131471	1004
22	5001	50.923808131471	829
22	5016	50.941112131471	782
22	5031	50.957476131471	864
22	5046	50.975480131471	260
22	5060	50.981404131471	963
22	5080	51.001388131471	749
22	5095	51.017092131471	139
22	5110	51.020112131471	1020
22	5126	51.040652131471	598
22	5141	51.052752131471	461
22	5155	51.062112131471	889
22	5171	51.080032131471	621
22	5186	51.092592131471	843
22	5243	51.923223131471	528
22	5256	51.923808131471	152
22	5270	51.927572131471	925
22	5286	51.946796131471	149
22	5300	51.950500131471	110
22	5314	51.953424131471	25
22	5328	51.954648131471	464
22	5346	51.964652131471	956
22	5362	51.984012131471	889
22	5381	52.001932131471	886
22	5396	52.019792131471	117
22	5410	52.022272131471	445
22	5425	52.031312131471	595
22	5441	52.043352131471	673
22	5498	52.923223131471	928
22	5511	52.923808131471	228
22	5525	52.929092131471	507
22	5541	52.939956131471	763
22	5556	52.955940131471	121
22	5570	52.959084131471	326
22	5585	52.966328131471	469
22	5601	52.976432131471	287
22	5616	52.982412131471	525
22	5632	52.993052131471	839
22	5651	53.009972131471	696
22	5666	53.024032131471	152
22	5680	53.027212131471	591
22	5696	53.039172131471	41
22	5753	53.923223131471	552
22	5766	53.923808131471	438
22	5780	53.933292131471	207
22	5795	53.938156131471	779
22	5811	53.954460131471	166
22	5825	53.958504131471	111
22	5839	53.961448131471	349
22	5855	53.969152131471	1017
22	5872	53.989732131471	129
22	5886	53.992452131471	735
22	5906	54.007292131471	886
22	5921	54.025152131471	812
22	5936	54.041532131471	216
22	5950	54.045992131471	381
22	6008	54.923223131471	67
22	6021	54.923808131471	978
22	6036	54.944092131471	1007
22	6051	54.964956131471	771
22	6066	54.981100131471	234
22	6080	54.986504131471	716
22	6100	55.001548131471	998
22	6115	55.022232131471	291
22	6130	55.028292131471	726
22	6146	55.042952131471	1022
22	6161	55.063532131471	701
22	6176	55.077692131471	709
22	6191	55.092012131471	727
22	6210	55.106692131471	555
22	6263	55.923223131471	11
22	6276	55.923808131471	616
22	6291	55.936852131471	212
22	6305	55.941816131471	138
22	6319	55.945300131471	694
22	6336	55.959904131471	1003
22	6351	55.980688131471	421
22	6365	55.989832131471	637
22	6386	56.002812131471	668
22	6401	56.016312131471	623
22	6416	56.028912131471	488
22	6430	56.038812131471	770
22	6446	56.054352131471	539
22	6461	56.065272131471	979
22	6518	56.923223131471	663
22	6531	56.923808131471	821
22	6546	56.940952131471	307
22	6560	56.947816131471	174
22	6575	56.952020131471	148
22	6589	56.955704131471	949
22	6606	56.975408131471	541
22	6621	56.986952131471	579
22	6637	56.998772131471	547
22	6656	57.009852131471	807
22	6671	57.026132131471	393
22	6685	57.034132131471	73
22	6699	57.035732131471	297
22	6714	57.041812131471	919
22	6773	57.923223131471	814
22	6786	57.923808131471	730
22	6801	57.939132131471	946
22	6816	57.958776131471	876
22	6831	57.977020131471	771
22	6846	57.993164131471	799
22	6865	58.009868131471	777
22	6880	58.026132131471	394
22	6895	58.034252131471	539
22	6911	58.045172131471	429
22	6925	58.053892131471	199
22	6940	58.058012131471	423
22	6955	58.066612131471	61
22	6969	58.067972131471	341
22	7028	58.923223131471	44
22	7041	58.923808131471	802
22	7056	58.940572131471	930
22	7071	58.959896131471	88
22	7085	58.962380131471	33
22	7099	58.963764131471	645
22	7116	58.977388131471	232
22	7130	58.982752131471	767
22	7147	58.998332131471	36
22	7161	58.999192131471	768
22	7181	59.014692131471	459
22	7195	59.024012131471	290
22	7210	59.029952131471	197
22	7225	59.034032131471	894
22	7283	59.923223131471	254
23	27	0.923223131471	1
23	28	0.923223131471	0
23	89	1.923223131471	1
23	90	1.923223131471	0
23	148	2.923223131471	1
23	149	2.923223131471	0
23	207	3.923223131471	1
23	208	3.923223131471	0
23	266	4.923223131471	1
23	267	4.923223131471	0
23	325	5.923223131471	1
23	326	5.923223131471	0
23	384	6.923223131471	1
23	385	6.923223131471	0
23	443	7.923223131471	1
23	444	7.923223131471	0
23	502	8.923223131471	1
23	503	8.923223131471	0
23	561	9.923223131471	1
23	562	9.923223131471	0
23	620	10.923223131471	1
23	621	10.923223131471	0
23	679	11.923223131471	1
23	680	11.923223131471	0
23	738	12.923223131471	1
23	739	12.923223131471	0
23	797	13.923223131471	1
23	798	13.923223131471	0
23	856	14.923223131471	1
23	857	14.923223131471	0
23	915	15.923223131471	1
23	916	15.923223131471	0
23	974	16.923223131471	1
23	975	16.923223131471	0
23	1033	17.923223131471	1
23	1034	17.923223131471	0
23	1092	18.923223131471	1
23	1093	18.923223131471	0
23	1151	19.923223131471	1
23	1152	19.923223131471	0
23	1210	20.923223131471	1
23	1211	20.923223131471	0
23	1269	21.923223131471	1
23	1270	21.923223131471	0
23	1328	22.923223131471	1
23	1329	22.923223131471	0
23	1387	23.923223131471	1
23	1388	23.923223131471	0
23	1446	24.923223131471	1
23	1447	24.923223131471	0
23	1505	25.923223131471	1
23	1506	25.923223131471	0
23	1564	26.923223131471	1
23	1565	26.923223131471	0
23	1623	27.923223131471	1
23	1624	27.923223131471	0
23	1682	28.923223131471	1
23	1683	28.923223131471	0
23	1741	29.923223131471	1
23	1742	29.923223131471	0
23	1800	30.923223131471	1
23	1801	30.923223131471	0
23	1859	31.923223131471	1
23	1860	31.923223131471	0
23	1918	32.923223131471	1
23	1919	32.923223131471	0
23	1977	33.923223131471	1
23	1978	33.923223131471	0
23	2009	33.923893875969	1
23	2011	33.923903875969	0
23	2020	33.923937875969	1
23	2025	33.924467875969	0
23	2194	34.923223131471	1
23	2195	34.923223131471	0
23	2361	35.923223131471	1
23	2362	35.923223131471	0
23	2528	36.923223131471	1
23	2529	36.923223131471	0
23	2695	37.923223131471	1
23	2696	37.923223131471	0
23	2862	38.923223131471	1
23	2863	38.923223131471	0
23	3029	39.923223131471	1
23	3030	39.923223131471	0
23	3196	40.923223131471	1
23	3197	40.923223131471	0
23	3363	41.923223131471	1
[...]
94	7288	52.6	0
94	7288	52.7	0
94	7288	52.8	0
94	7288	52.9	0
94	7288	53	0
94	7288	53.1	0
94	7288	53.2	0
94	7288	53.3	0
94	7288	53.4	0
94	7288	53.5	0
94	7288	53.6	0
94	7288	53.7	0
94	7288	53.8	0
94	7288	53.9	0
94	7288	54	0
94	7288	54.1	0
94	7288	54.2	0
94	7288	54.3	0
94	7288	54.4	0
94	7288	54.5	0
94	7288	54.6	0
94	7288	54.7	0
94	7288	54.8	0
94	7288	54.9	0
94	7288	55	0
94	7288	55.1	0
94	7288	55.2	0
94	7288	55.3	0
94	7288	55.4	0
94	7288	55.5	0
94	7288	55.6	0
94	7288	55.7	0
94	7288	55.8	0
94	7288	55.9	0
94	7288	56	0
94	7288	56.1	0
94	7288	56.2	0
94	7288	56.3	0
94	7288	56.4	0
94	7288	56.5	0
94	7288	56.6	0
94	7288	56.7	0
94	7288	56.8	0
94	7288	56.9	0
94	7288	57	0
94	7288	57.1	0
94	7288	57.2	0
94	7288	57.3	0
94	7288	57.4	0
94	7288	57.5	0
94	7288	57.6	0
94	7288	57.7	0
94	7288	57.8	0
94	7288	57.9	0
94	7288	58	0
94	7288	58.1	0
94	7288	58.2	0
94	7288	58.3	0
94	7288	58.4	0
94	7288	58.5	0
94	7288	58.6	0
94	7288	58.7	0
94	7288	58.8	0
94	7288	58.9	0
94	7288	59	0
94	7288	59.1	0
94	7288	59.2	0
94	7288	59.3	0
94	7288	59.4	0
94	7288	59.5	0
94	7288	59.6	0
94	7288	59.7	0
94	7288	59.8	0
94	7288	59.9	0
94	7288	59.923228384693	0
95	7288	0.1	0
95	7288	0.2	0
95	7288	0.3	0
95	7288	0.4	0
95	7288	0.5	0
95	7288	0.6	0
95	7288	0.7	0
95	7288	0.8	0
95	7288	0.9	0
95	7288	1	0
95	7288	1.1	0
95	7288	1.2	0
95	7288	1.3	0
95	7288	1.4	0
95	7288	1.5	0
95	7288	1.6	0
95	7288	1.7	0
95	7288	1.8	0
95	7288	1.9	0
95	7288	2	0
95	7288	2.1	0
95	7288	2.2	0
95	7288	2.3	0
95	7288	2.4	0
95	7288	2.5	0
95	7288	2.6	0
95	7288	2.7	0
95	7288	2.8	0
95	7288	2.9	0
95	7288	3	0
95	7288	3.1	0
95	7288	3.2	0
95	7288	3.3	0
95	7288	3.4	0
95	7288	3.5	0
95	7288	3.6	0
95	7288	3.7	0
95	7288	3.8	0
95	7288	3.9	0
95	7288	4	0
95	7288	4.1	0
95	7288	4.2	0
95	7288	4.3	0
95	7288	4.4	0
95	7288	4.5	0
95	7288	4.6	0
95	7288	4.7	0
95	7288	4.8	0
95	7288	4.9	0
95	7288	5	0
95	7288	5.1	0
95	7288	5.2	0
95	7288	5.3	0
95	7288	5.4	0
95	7288	5.5	0
95	7288	5.6	0
95	7288	5.7	0
95	7288	5.8	0
95	7288	5.9	0
95	7288	6	0
95	7288	6.1	0
95	7288	6.2	0
95	7288	6.3	0
95	7288	6.4	0
95	7288	6.5	0
95	7288	6.6	0
95	7288	6.7	0
95	7288	6.8	0
95	7288	6.9	0
95	7288	7	0
95	7288	7.1	0
95	7288	7.2	0
95	7288	7.3	0
95	7288	7.4	0
95	7288	7.5	0
95	7288	7.6	0
95	7288	7.7	0
95	7288	7.8	0
95	7288	7.9	0
95	7288	8	0
95	7288	8.1	0
95	7288	8.2	0
95	7288	8.3	0
95	7288	8.4	0
95	7288	8.5	0
95	7288	8.6	0
95	7288	8.7	0
95	7288	8.8	0
95	7288	8.9	0
95	7288	9	0
95	7288	9.1	0
95	7288	9.2	0
95	7288	9.3	0
95	7288	9.4	0
95	7288	9.5	0
95	7288	9.6	0
95	7288	9.7	0
95	7288	9.8	0
95	7288	9.9	0
95	7288	10	0
95	7288	10.1	0
95	7288	10.2	0
95	7288	10.3	0
95	7288	10.4	0
95	7288	10.5	0
95	7288	10.6	0
95	7288	10.7	0
95	7288	10.8	0
95	7288	10.9	0
95	7288	11	0
95	7288	11.1	0
95	7288	11.2	0
95	7288	11.3	0
95	7288	11.4	0
95	7288	11.5	0
95	7288	11.6	0
95	7288	11.7	0
95	7288	11.8	0
95	7288	11.9	0
95	7288	12	0
95	7288	12.1	0
95	7288	12.2	0
95	7288	12.3	0
95	7288	12.4	0
95	7288	12.5	0
95	7288	12.6	0
95	7288	12.7	0
95	7288	12.8	0
95	7288	12.9	0
95	7288	13	0
95	7288	13.1	0
95	7288	13.2	0
95	7288	13.3	0
95	7288	13.4	0
95	7288	13.5	0
95	7288	13.6	0
95	7288	13.7	0
95	7288	13.8	0
95	7288	13.9	0
95	7288	14	0
95	7288	14.1	0
95	7288	14.2	0
95	7288	14.3	0
95	7288	14.4	0
95	7288	14.5	0
95	7288	14.6	0
95	7288	14.7	0
95	7288	14.8	0
95	7288	14.9	0
95	7288	15	0
95	7288	15.1	0
95	7288	15.2	0
95	7288	15.3	0
95	7288	15.4	0
95	7288	15.5	0
95	7288	15.6	0
95	7288	15.7	0
95	7288	15.8	0
95	7288	15.9	0
95	7288	16	0
95	7288	16.1	0
95	7288	16.2	0
95	7288	16.3	0
95	7288	16.4	0
95	7288	16.5	0
95	7288	16.6	0
95	7288	16.7	0
95	7288	16.8	0
95	7288	16.9	0
95	7288	17	0
95	7288	17.1	0
95	7288	17.2	0
95	7288	17.3	0
95	7288	17.4	0
95	7288	17.5	0
95	7288	17.6	0
95	7288	17.7	0
95	7288	17.8	0
95	7288	17.9	0
95	7288	18	0
95	7288	18.1	0
95	7288	18.2	0
95	7288	18.3	0
95	7288	18.4	0
95	7288	18.5	0
95	7288	18.6	0
95	7288	18.7	0
95	7288	18.8	0
95	7288	18.9	0
95	7288	19	0
95	7288	19.1	0
95	7288	19.2	0
95	7288	19.3	0
95	7288	19.4	0
95	7288	19.5	0
95	7288	19.6	0
95	7288	19.7	0
95	7288	19.8	0
95	7288	19.9	0
95	7288	20	0
95	7288	20.1	0
95	7288	20.2	0
95	7288	20.3	0
95	7288	20.4	0
95	7288	20.5	0
95	7288	20.6	0
95	7288	20.7	0
95	7288	20.8	0
95	7288	20.9	0
95	7288	21	0
95	7288	21.1	0
95	7288	21.2	0
95	7288	21.3	0
95	7288	21.4	0
95	7288	21.5	0
95	7288	21.6	0
95	7288	21.7	0
95	7288	21.8	0
95	7288	21.9	0
95	7288	22	0
95	7288	22.1	0
95	7288	22.2	0
95	7288	22.3	0
95	7288	22.4	0
95	7288	22.5	0
95	7288	22.6	0
95	7288	22.7	0
95	7288	22.8	0
95	7288	22.9	0
95	7288	23	0
95	7288	23.1	0
95	7288	23.2	0
95	7288	23.3	0
95	7288	23.4	0
95	7288	23.5	0
95	7288	23.6	0
95	7288	23.7	0
95	7288	23.8	0
95	7288	23.9	0
95	7288	24	0
95	7288	24.1	0
95	7288	24.2	0
95	7288	24.3	0
95	7288	24.4	0
95	7288	24.5	0
95	7288	24.6	0
95	7288	24.7	0
95	7288	24.8	0
95	7288	24.9	0
95	7288	25	0
95	7288	25.1	0
95	7288	25.2	0
95	7288	25.3	0
95	7288	25.4	0
95	7288	25.5	0
95	7288	25.6	0
95	7288	25.7	0
95	7288	25.8	0
95	7288	25.9	0
95	7288	26	0
95	7288	26.1	0
95	7288	26.2	0
95	7288	26.3	0
95	7288	26.4	0
95	7288	26.5	0
95	7288	26.6	0
95	7288	26.7	0
95	7288	26.8	0
95	7288	26.9	0
95	7288	27	0
95	7288	27.1	0
95	7288	27.2	0
95	7288	27.3	0
95	7288	27.4	0
95	7288	27.5	0
95	7288	27.6	0
95	7288	27.7	0
95	7288	27.8	0
95	7288	27.9	0
95	7288	28	0
95	7288	28.1	0
95	7288	28.2	0
95	7288	28.3	0
95	7288	28.4	0
95	7288	28.5	0
95	7288	28.6	0
95	7288	28.7	0
95	7288	28.8	0
95	7288	28.9	0
95	7288	29	0
95	7288	29.1	0
95	7288	29.2	0
95	7288	29.3	0
95	7288	29.4	0
95	7288	29.5	0
95	7288	29.6	0
95	7288	29.7	0
95	7288	29.8	0
95	7288	29.9	0
95	7288	30	0
95	7288	30.1	0
95	7288	30.2	0
95	7288	30.3	0
95	7288	30.4	0
95	7288	30.5	0
95	7288	30.6	0
95	7288	30.7	0
95	7288	30.8	0
95	7288	30.9	0
95	7288	31	0
95	7288	31.1	0
95	7288	31.2	0
95	7288	31.3	0
95	7288	31.4	0
95	7288	31.5	0
95	7288	31.6	0
95	7288	31.7	0
95	7288	31.8	0
95	7288	31.9	0
95	7288	32	0
95	7288	32.1	0
95	7288	32.2	0
95	7288	32.3	0
95	7288	32.4	0
95	7288	32.5	0
95	7288	32.6	0
95	7288	32.7	0
95	7288	32.8	0
95	7288	32.9	0
95	7288	33	0
95	7288	33.1	0
95	7288	33.2	0
95	7288	33.3	0
95	7288	33.4	0
95	7288	33.5	0
95	7288	33.6	0
95	7288	33.7	0
95	7288	33.8	0
95	7288	33.9	0
95	7288	34	0
95	7288	34.1	0
95	7288	34.2	0
95	7288	34.3	0
95	7288	34.4	0
95	7288	34.5	0
95	7288	34.6	0
95	7288	34.7	0
95	7288	34.8	0
95	7288	34.9	0
95	7288	35	0
95	7288	35.1	0
95	7288	35.2	0
95	7288	35.3	0
95	7288	35.4	0
95	7288	35.5	0
95	7288	35.6	0
95	7288	35.7	0
95	7288	35.8	0
95	7288	35.9	0
95	7288	36	0
95	7288	36.1	0
95	7288	36.2	0
95	7288	36.3	0
95	7288	36.4	0
95	7288	36.5	0
95	7288	36.6	0
95	7288	36.7	0
95	7288	36.8	0
95	7288	36.9	0
95	7288	37	0
95	7288	37.1	0
95	7288	37.2	0
95	7288	37.3	0
95	7288	37.4	0
95	7288	37.5	0
95	7288	37.6	0
95	7288	37.7	0
95	7288	37.8	0
95	7288	37.9	0
95	7288	38	0
95	7288	38.1	0
95	7288	38.2	0
95	7288	38.3	0
95	7288	38.4	0
95	7288	38.5	0
95	7288	38.6	0
95	7288	38.7	0
95	7288	38.8	0
95	7288	38.9	0
95	7288	39	0
95	7288	39.1	0
95	7288	39.2	0
95	7288	39.3	0
95	7288	39.4	0
95	7288	39.5	0
95	7288	39.6	0
95	7288	39.7	0
95	7288	39.8	0
95	7288	39.9	0
95	7288	40	0
95	7288	40.1	0
95	7288	40.2	0
95	7288	40.3	0
95	7288	40.4	0
95	7288	40.5	0
95	7288	40.6	0
95	7288	40.7	0
95	7288	40.8	0
95	7288	40.9	0
95	7288	41	0
95	7288	41.1	0
95	7288	41.2	0
95	7288	41.3	0
95	7288	41.4	0
95	7288	41.5	0
95	7288	41.6	0
95	7288	41.7	0
95	7288	41.8	0
95	7288	41.9	0
95	7288	42	0
95	7288	42.1	0
95	7288	42.2	0
95	7288	42.3	0
95	7288	42.4	0
95	7288	42.5	0
95	7288	42.6	0
95	7288	42.7	0
95	7288	42.8	0
95	7288	42.9	0
95	7288	43	0
95	7288	43.1	0
95	7288	43.2	0
95	7288	43.3	0
95	7288	43.4	0
95	7288	43.5	0
95	7288	43.6	0
95	7288	43.7	0
95	7288	43.8	0
95	7288	43.9	0
95	7288	44	0
95	7288	44.1	0
95	7288	44.2	0
95	7288	44.3	0
95	7288	44.4	0
95	7288	44.5	0
95	7288	44.6	0
95	7288	44.7	0
95	7288	44.8	0
95	7288	44.9	0
95	7288	45	0
95	7288	45.1	0
95	7288	45.2	0
95	7288	45.3	0
95	7288	45.4	0
95	7288	45.5	0
95	7288	45.6	0
95	7288	45.7	0
95	7288	45.8	0
95	7288	45.9	0
95	7288	46	0
95	7288	46.1	0
95	7288	46.2	0
95	7288	46.3	0
95	7288	46.4	0
95	7288	46.5	0
95	7288	46.6	0
95	7288	46.7	0
95	7288	46.8	0
95	7288	46.9	0
95	7288	47	0
95	7288	47.1	0
95	7288	47.2	0
95	7288	47.3	0
95	7288	47.4	0
95	7288	47.5	0
95	7288	47.6	0
95	7288	47.7	0
95	7288	47.8	0
95	7288	47.9	0
95	7288	48	0
95	7288	48.1	0
95	7288	48.2	0
95	7288	48.3	0
95	7288	48.4	0
95	7288	48.5	0
95	7288	48.6	0
95	7288	48.7	0
95	7288	48.8	0
95	7288	48.9	0
95	7288	49	0
95	7288	49.1	0
95	7288	49.2	0
95	7288	49.3	0
95	7288	49.4	0
95	7288	49.5	0
95	7288	49.6	0
95	7288	49.7	0
95	7288	49.8	0
95	7288	49.9	0
95	7288	50	0
95	7288	50.1	0
95	7288	50.2	0
95	7288	50.3	0
95	7288	50.4	0
95	7288	50.5	0
95	7288	50.6	0
95	7288	50.7	0
95	7288	50.8	0
95	7288	50.9	0
95	7288	51	0
95	7288	51.1	0
95	7288	51.2	0
95	7288	51.3	0
95	7288	51.4	0
95	7288	51.5	0
95	7288	51.6	0
95	7288	51.7	0
95	7288	51.8	0
95	7288	51.9	0
95	7288	52	0
95	7288	52.1	0
95	7288	52.2	0
95	7288	52.3	0
95	7288	52.4	0
95	7288	52.5	0
95	7288	52.6	0
95	7288	52.7	0
95	7288	52.8	0
95	7288	52.9	0
95	7288	53	0
95	7288	53.1	0
95	7288	53.2	0
95	7288	53.3	0
95	7288	53.4	0
95	7288	53.5	0
95	7288	53.6	0
95	7288	53.7	0
95	7288	53.8	0
95	7288	53.9	0
95	7288	54	0
95	7288	54.1	0
95	7288	54.2	0
95	7288	54.3	0
95	7288	54.4	0
95	7288	54.5	0
95	7288	54.6	0
95	7288	54.7	0
95	7288	54.8	0
95	7288	54.9	0
95	7288	55	0
95	7288	55.1	0
95	7288	55.2	0
95	7288	55.3	0
95	7288	55.4	0
95	7288	55.5	0
95	7288	55.6	0
95	7288	55.7	0
95	7288	55.8	0
95	7288	55.9	0
95	7288	56	0
95	7288	56.1	0
95	7288	56.2	0
95	7288	56.3	0
95	7288	56.4	0
95	7288	56.5	0
95	7288	56.6	0
95	7288	56.7	0
95	7288	56.8	0
95	7288	56.9	0
95	7288	57	0
95	7288	57.1	0
95	7288	57.2	0
95	7288	57.3	0
95	7288	57.4	0
95	7288	57.5	0
95	7288	57.6	0
95	7288	57.7	0
95	7288	57.8	0
95	7288	57.9	0
95	7288	58	0
95	7288	58.1	0
95	7288	58.2	0
95	7288	58.3	0
95	7288	58.4	0
95	7288	58.5	0
95	7288	58.6	0
95	7288	58.7	0
95	7288	58.8	0
95	7288	58.9	0
95	7288	59	0
95	7288	59.1	0
95	7288	59.2	0
95	7288	59.3	0
95	7288	59.4	0
95	7288	59.5	0
95	7288	59.6	0
95	7288	59.7	0
95	7288	59.8	0
95	7288	59.9	0
95	7288	59.923228384693	0
96	7288	0.1	0
96	7288	0.2	0
96	7288	0.3	0
96	7288	0.4	0
96	7288	0.5	0
96	7288	0.6	0
96	7288	0.7	0
96	7288	0.8	0
96	7288	0.9	0
96	7288	1	0
96	7288	1.1	0
96	7288	1.2	0
96	7288	1.3	0
96	7288	1.4	0
96	7288	1.5	0
96	7288	1.6	0
96	7288	1.7	0
96	7288	1.8	0
96	7288	1.9	0
96	7288	2	0
96	7288	2.1	0
96	7288	2.2	0
96	7288	2.3	0
96	7288	2.4	0
96	7288	2.5	0
96	7288	2.6	0
96	7288	2.7	0
96	7288	2.8	0
96	7288	2.9	0
96	7288	3	0
96	7288	3.1	0
96	7288	3.2	0
96	7288	3.3	0
96	7288	3.4	0
96	7288	3.5	0
96	7288	3.6	0
96	7288	3.7	0
96	7288	3.8	0
96	7288	3.9	0
96	7288	4	0
96	7288	4.1	0
96	7288	4.2	0
96	7288	4.3	0
96	7288	4.4	0
96	7288	4.5	0
96	7288	4.6	0
96	7288	4.7	0
96	7288	4.8	0
96	7288	4.9	0
96	7288	5	0
96	7288	5.1	0
96	7288	5.2	0
96	7288	5.3	0
96	7288	5.4	0
96	7288	5.5	0
96	7288	5.6	0
96	7288	5.7	0
96	7288	5.8	0
96	7288	5.9	0
96	7288	6	0
96	7288	6.1	0
96	7288	6.2	0
96	7288	6.3	0
96	7288	6.4	0
96	7288	6.5	0
96	7288	6.6	0
96	7288	6.7	0
96	7288	6.8	0
96	7288	6.9	0
96	7288	7	0
96	7288	7.1	0
96	7288	7.2	0
96	7288	7.3	0
96	7288	7.4	0
96	7288	7.5	0
96	7288	7.6	0
96	7288	7.7	0
96	7288	7.8	0
96	7288	7.9	0
96	7288	8	0
96	7288	8.1	0
96	7288	8.2	0
96	7288	8.3	0
96	7288	8.4	0
96	7288	8.5	0
96	7288	8.6	0
96	7288	8.7	0
96	7288	8.8	0
96	7288	8.9	0
96	7288	9	0
96	7288	9.1	0
96	7288	9.2	0
96	7288	9.3	0
96	7288	9.4	0
96	7288	9.5	0
96	7288	9.6	0
96	7288	9.7	0
96	7288	9.8	0
96	7288	9.9	0
96	7288	10	0
96	7288	10.1	0
96	7288	10.2	0
96	7288	10.3	0
96	7288	10.4	0
96	7288	10.5	0
96	7288	10.6	0
96	7288	10.7	0
96	7288	10.8	0
96	7288	10.9	0
96	7288	11	0
96	7288	11.1	0
96	7288	11.2	0
96	7288	11.3	0
96	7288	11.4	0
96	7288	11.5	0
96	7288	11.6	0
96	7288	11.7	0
96	7288	11.8	0
96	7288	11.9	0
96	7288	12	0
96	7288	12.1	0
96	7288	12.2	0
96	7288	12.3	0
96	7288	12.4	0
96	7288	12.5	0
96	7288	12.6	0
96	7288	12.7	0
96	7288	12.8	0
96	7288	12.9	0
96	7288	13	0
96	7288	13.1	0
96	7288	13.2	0
96	7288	13.3	0
96	7288	13.4	0
96	7288	13.5	0
96	7288	13.6	0
96	7288	13.7	0
96	7288	13.8	0
96	7288	13.9	0
96	7288	14	0
96	7288	14.1	0
96	7288	14.2	0
96	7288	14.3	0
96	7288	14.4	0
96	7288	14.5	0
96	7288	14.6	0
96	7288	14.7	0
96	7288	14.8	0
96	7288	14.9	0
96	7288	15	0
96	7288	15.1	0
96	7288	15.2	0
96	7288	15.3	0
96	7288	15.4	0
96	7288	15.5	0
96	7288	15.6	0
96	7288	15.7	0
96	7288	15.8	0
96	7288	15.9	0
96	7288	16	0
96	7288	16.1	0
96	7288	16.2	0
96	7288	16.3	0
96	7288	16.4	0
96	7288	16.5	0
96	7288	16.6	0
96	7288	16.7	0
96	7288	16.8	0
96	7288	16.9	0
96	7288	17	0
96	7288	17.1	0
96	7288	17.2	0
96	7288	17.3	0
96	7288	17.4	0
96	7288	17.5	0
96	7288	17.6	0
96	7288	17.7	0
96	7288	17.8	0
96	7288	17.9	0
96	7288	18	0
96	7288	18.1	0
96	7288	18.2	0
96	7288	18.3	0
96	7288	18.4	0
96	7288	18.5	0
96	7288	18.6	0
96	7288	18.7	0
96	7288	18.8	0
96	7288	18.9	0
96	7288	19	0
96	7288	19.1	0
96	7288	19.2	0
96	7288	19.3	0
96	7288	19.4	0
96	7288	19.5	0
96	7288	19.6	0
96	7288	19.7	0
96	7288	19.8	0
96	7288	19.9	0
96	7288	20	0
96	7288	20.1	0
96	7288	20.2	0
96	7288	20.3	0
96	7288	20.4	0
96	7288	20.5	0
96	7288	20.6	0
96	7288	20.7	0
96	7288	20.8	0
96	7288	20.9	0
96	7288	21	0
96	7288	21.1	0
96	7288	21.2	0
96	7288	21.3	0
96	7288	21.4	0
96	7288	21.5	0
96	7288	21.6	0
96	7288	21.7	0
96	7288	21.8	0
96	7288	21.9	0
96	7288	22	0
96	7288	22.1	0
96	7288	22.2	0
96	7288	22.3	0
96	7288	22.4	0
96	7288	22.5	0
96	7288	22.6	0
96	7288	22.7	0
96	7288	22.8	0
96	7288	22.9	0
96	7288	23	0
96	7288	23.1	0
96	7288	23.2	0
96	7288	23.3	0
96	7288	23.4	0
96	7288	23.5	0
96	7288	23.6	0
96	7288	23.7	0
96	7288	23.8	0
96	7288	23.9	0
96	7288	24	0
96	7288	24.1	0
96	7288	24.2	0
96	7288	24.3	0
96	7288	24.4	0
96	7288	24.5	0
96	7288	24.6	0
96	7288	24.7	0
96	7288	24.8	0
96	7288	24.9	0
96	7288	25	0
96	7288	25.1	0
96	7288	25.2	0
96	7288	25.3	0
96	7288	25.4	0
96	7288	25.5	0
96	7288	25.6	0
96	7288	25.7	0
96	7288	25.8	0
96	7288	25.9	0
96	7288	26	0
96	7288	26.1	0
96	7288	26.2	0
96	7288	26.3	0
96	7288	26.4	0
96	7288	26.5	0
96	7288	26.6	0
96	7288	26.7	0
96	7288	26.8	0
96	7288	26.9	0
96	7288	27	0
96	7288	27.1	0
96	7288	27.2	0
96	7288	27.3	0
96	7288	27.4	0
96	7288	27.5	0
96	7288	27.6	0
96	7288	27.7	0
96	7288	27.8	0
96	7288	27.9	0
96	7288	28	0
96	7288	28.1	0
96	7288	28.2	0
96	7288	28.3	0
96	7288	28.4	0
96	7288	28.5	0
96	7288	28.6	0
96	7288	28.7	0
96	7288	28.8	0
96	7288	28.9	0
96	7288	29	0
96	7288	29.1	0
96	7288	29.2	0
96	7288	29.3	0
96	7288	29.4	0
96	7288	29.5	0
96	7288	29.6	0
96	7288	29.7	0
96	7288	29.8	0
96	7288	29.9	0
96	7288	30	0
96	7288	30.1	0
96	7288	30.2	0
96	7288	30.3	0
96	7288	30.4	0
96	7288	30.5	0
96	7288	30.6	0
96	7288	30.7	0
96	7288	30.8	0
96	7288	30.9	0
96	7288	31	0
96	7288	31.1	0
96	7288	31.2	0
96	7288	31.3	0
96	7288	31.4	0
96	7288	31.5	0
96	7288	31.6	0
96	7288	31.7	0
96	7288	31.8	0
96	7288	31.9	0
96	7288	32	0
96	7288	32.1	0
96	7288	32.2	0
96	7288	32.3	0
96	7288	32.4	0
96	7288	32.5	0
96	7288	32.6	0
96	7288	32.7	0
96	7288	32.8	0
96	7288	32.9	0
96	7288	33	0
96	7288	33.1	0
96	7288	33.2	0
96	7288	33.3	0
96	7288	33.4	0
96	7288	33.5	0
96	7288	33.6	0
96	7288	33.7	0
96	7288	33.8	0
96	7288	33.9	0
96	7288	34	0
96	7288	34.1	0
96	7288	34.2	0
96	7288	34.3	0
96	7288	34.4	0
96	7288	34.5	0
96	7288	34.6	0
96	7288	34.7	0
96	7288	34.8	0
96	7288	34.9	0
96	7288	35	0
96	7288	35.1	0
96	7288	35.2	0
96	7288	35.3	0
96	7288	35.4	0
96	7288	35.5	0
96	7288	35.6	0
96	7288	35.7	0
96	7288	35.8	0
96	7288	35.9	0
96	7288	36	0
96	7288	36.1	0
96	7288	36.2	0
96	7288	36.3	0
96	7288	36.4	0
96	7288	36.5	0
96	7288	36.6	0
96	7288	36.7	0
96	7288	36.8	0
96	7288	36.9	0
96	7288	37	0
96	7288	37.1	0
96	7288	37.2	0
96	7288	37.3	0
96	7288	37.4	0
96	7288	37.5	0
96	7288	37.6	0
96	7288	37.7	0
96	7288	37.8	0
96	7288	37.9	0
96	7288	38	0
96	7288	38.1	0
96	7288	38.2	0
96	7288	38.3	0
96	7288	38.4	0
96	7288	38.5	0
96	7288	38.6	0
96	7288	38.7	0
96	7288	38.8	0
96	7288	38.9	0
96	7288	39	0
96	7288	39.1	0
96	7288	39.2	0
96	7288	39.3	0
96	7288	39.4	0
96	7288	39.5	0
96	7288	39.6	0
96	7288	39.7	0
96	7288	39.8	0
96	7288	39.9	0
96	7288	40	0
96	7288	40.1	0
96	7288	40.2	0
96	7288	40.3	0
96	7288	40.4	0
96	7288	40.5	0
96	7288	40.6	0
96	7288	40.7	0
96	7288	40.8	0
96	7288	40.9	0
96	7288	41	0
96	7288	41.1	0
96	7288	41.2	0
96	7288	41.3	0
96	7288	41.4	0
96	7288	41.5	0
96	7288	41.6	0
96	7288	41.7	0
96	7288	41.8	0
96	7288	41.9	0
96	7288	42	0
96	7288	42.1	0
96	7288	42.2	0
96	7288	42.3	0
96	7288	42.4	0
96	7288	42.5	0
96	7288	42.6	0
96	7288	42.7	0
96	7288	42.8	0
96	7288	42.9	0
96	7288	43	0
96	7288	43.1	0
96	7288	43.2	0
96	7288	43.3	0
96	7288	43.4	0
96	7288	43.5	0
96	7288	43.6	0
96	7288	43.7	0
96	7288	43.8	0
96	7288	43.9	0
96	7288	44	0
96	7288	44.1	0
96	7288	44.2	0
96	7288	44.3	0
96	7288	44.4	0
96	7288	44.5	0
96	7288	44.6	0
96	7288	44.7	0
96	7288	44.8	0
96	7288	44.9	0
96	7288	45	0
96	7288	45.1	0
96	7288	45.2	0
96	7288	45.3	0
96	7288	45.4	0
96	7288	45.5	0
96	7288	45.6	0
96	7288	45.7	0
96	7288	45.8	0
96	7288	45.9	0
96	7288	46	0
96	7288	46.1	0
96	7288	46.2	0
96	7288	46.3	0
96	7288	46.4	0
96	7288	46.5	0
96	7288	46.6	0
96	7288	46.7	0
96	7288	46.8	0
96	7288	46.9	0
96	7288	47	0
96	7288	47.1	0
96	7288	47.2	0
96	7288	47.3	0
96	7288	47.4	0
96	7288	47.5	0
96	7288	47.6	0
96	7288	47.7	0
96	7288	47.8	0
96	7288	47.9	0
96	7288	48	0
96	7288	48.1	0
96	7288	48.2	0
96	7288	48.3	0
96	7288	48.4	0
96	7288	48.5	0
96	7288	48.6	0
96	7288	48.7	0
96	7288	48.8	0
96	7288	48.9	0
96	7288	49	0
96	7288	49.1	0
96	7288	49.2	0
96	7288	49.3	0
96	7288	49.4	0
96	7288	49.5	0
96	7288	49.6	0
96	7288	49.7	0
96	7288	49.8	0
96	7288	49.9	0
96	7288	50	0
96	7288	50.1	0
96	7288	50.2	0
96	7288	50.3	0
96	7288	50.4	0
96	7288	50.5	0
96	7288	50.6	0
96	7288	50.7	0
96	7288	50.8	0
96	7288	50.9	0
96	7288	51	0
96	7288	51.1	0
96	7288	51.2	0
96	7288	51.3	0
96	7288	51.4	0
96	7288	51.5	0
96	7288	51.6	0
96	7288	51.7	0
96	7288	51.8	0
96	7288	51.9	0
96	7288	52	0
96	7288	52.1	0
96	7288	52.2	0
96	7288	52.3	0
96	7288	52.4	0
96	7288	52.5	0
96	7288	52.6	0
96	7288	52.7	0
96	7288	52.8	0
96	7288	52.9	0
96	7288	53	0
96	7288	53.1	0
96	7288	53.2	0
96	7288	53.3	0
96	7288	53.4	0
96	7288	53.5	0
96	7288	53.6	0
96	7288	53.7	0
96	7288	53.8	0
96	7288	53.9	0
96	7288	54	0
96	7288	54.1	0
96	7288	54.2	0
96	7288	54.3	0
96	7288	54.4	0
96	7288	54.5	0
96	7288	54.6	0
96	7288	54.7	0
96	7288	54.8	0
96	7288	54.9	0
96	7288	55	0
96	7288	55.1	0
96	7288	55.2	0
96	7288	55.3	0
96	7288	55.4	0
96	7288	55.5	0
96	7288	55.6	0
96	7288	55.7	0
96	7288	55.8	0
96	7288	55.9	0
96	7288	56	0
96	7288	56.1	0
96	7288	56.2	0
96	7288	56.3	0
96	7288	56.4	0
96	7288	56.5	0
96	7288	56.6	0
96	7288	56.7	0
96	7288	56.8	0
96	7288	56.9	0
96	7288	57	0
96	7288	57.1	0
96	7288	57.2	0
96	7288	57.3	0
96	7288	57.4	0
96	7288	57.5	0
96	7288	57.6	0
96	7288	57.7	0
96	7288	57.8	0
96	7288	57.9	0
96	7288	58	0
96	7288	58.1	0
96	7288	58.2	0
96	7288	58.3	0
96	7288	58.4	0
96	7288	58.5	0
96	7288	58.6	0
96	7288	58.7	0
96	7288	58.8	0
96	7288	58.9	0
96	7288	59	0
96	7288	59.1	0
96	7288	59.2	0
96	7288	59.3	0
96	7288	59.4	0
96	7288	59.5	0
96	7288	59.6	0
96	7288	59.7	0
96	7288	59.8	0
96	7288	59.9	0
96	7288	59.923228384693	0

