version 2
run Sim1drone1sensor-0-20210530-15:57:57-20312
attr configname Sim1drone1sensor
attr datetime 20210530-15:57:57
attr experiment Sim1drone1sensor
attr inifile mobilityDrones-omnetpp.ini
attr iterationvars ""
attr iterationvarsf ""
attr measurement ""
attr network mobilityDrones
attr processid 20312
attr repetition 0
attr replication #0
attr resultdir results
attr runnumber 0
attr seedset 0
param *.numUAVs 1
param *.drones[*].app[0].destAddresses "\"sensor1\""
param *.sensor*.app[0].destAddresses "\"drones[0]\""
param *.sensor1.mobility.initialX 450m
param *.sensor1.mobility.initialY 450m
param *.sensor1.mobility.initialZ 0m
param *.visualizer.osgVisualizer.typename "\"IntegratedOsgVisualizer\""
param *.visualizer.osgVisualizer.sceneVisualizer.typename "\"SceneOsgEarthVisualizer\""
param *.visualizer.osgVisualizer.sceneVisualizer.mapFile "\"map.earth\""
param *.visualizer.osgVisualizer.sceneVisualizer.sceneImageSize 10000m
param *.visualizer.osgVisualizer.sceneVisualizer.axisLength 500m
param *.visualizer.osgVisualizer.sceneVisualizer.sceneMinX -200m
param *.visualizer.osgVisualizer.sceneVisualizer.sceneMinY -200m
param *.visualizer.osgVisualizer.sceneVisualizer.sceneMinZ 0m
param *.visualizer.osgVisualizer.sceneVisualizer.sceneMaxX 5000m
param *.visualizer.osgVisualizer.sceneVisualizer.sceneMaxY 5000m
param *.visualizer.osgVisualizer.sceneVisualizer.sceneMaxZ 5000m
param *.visualizer.osgVisualizer.networkNodeVisualizer.displayModuleName true
param *.visualizer.*.mobilityVisualizer.displayMobility true
param *.visualizer.*.mobilityVisualizer.displayPositions true
param *.visualizer.*.mobilityVisualizer.displayOrientations true
param *.visualizer.*.mobilityVisualizer.displayVelocities true
param *.visualizer.*.mobilityVisualizer.displayMovementTrails true
param *.visualizer.*.mobilityVisualizer.animationSpeed 10
param *.visualizer.mediumVisualizer.displaySignals true
param **.constraintAreaMinX -500m
param **.constraintAreaMinY -500m
param **.constraintAreaMinZ -500m
param **.constraintAreaMaxX 5000m
param **.constraintAreaMaxY 5000m
param **.constraintAreaMaxZ 5000m
param *.drones*.wlan[0].radio.displayCommunicationRange true
param *.coordinateSystem.sceneLongitude -43.22260deg
param *.coordinateSystem.sceneLatitude -22.97556deg
param *.coordinateSystem.sceneHeading 90deg
param *.environment.ground.typename "\"FlatGround\""
param *.drones[*].osgModel "\"3d/drone.ive.100.scale.0,0,90.rot\""
param *.drones[*].mobility.typename "\"DroneMobility\""
param *.drones[*].mobility.coordinateSystemModule "\"coordinateSystem\""
param *.drones[*].mobility.waypointFile "\"geoJockeyPath.wpl\""
param *.drones[*].mobility.climbAngle 30deg
param *.drones[*].mobility.waypointProximity 5m
param **.mobility.initFromDisplayString false
param *.drones[*].mobility.speed uniform(10mps,20mps)
param *.sensor.mobility.typename "\"StationaryMobility\""
param *.sensor*.numApps 2
param *.sensor*.app[0].typename "\"UdpBasicAppMobileSensorNode\""
param *.sensor*.app[0].destPort 1000
param *.sensor*.app[0].sendInterval 0.1s
param *.sensor*.app[0].startTime 1s
param *.sensor*.app[0].messageLength 1454Byte
param *.sensor*.app[0].packetName "\"SENSOR-DEFAULT-PAYLOAD\""
param *.sensor*.app[1].typename "\"UdpSinkMobileSensorNode\""
param *.sensor*.app[1].localPort 1000

vector 0 mobilityDrones.drones[0].wlan[0].radio radioMode:vector ETV
attr interpolationmode sample-hold
attr source radioModeChanged
attr title "Radio mode, vector"
vector 1 mobilityDrones.drones[0].wlan[0].radio radioChannel:vector ETV
attr interpolationmode sample-hold
attr source radioChannelChanged
attr title "Radio channel, vector"
vector 2 mobilityDrones.sensor1.wlan[0].radio radioMode:vector ETV
attr interpolationmode sample-hold
attr source radioModeChanged
attr title "Radio mode, vector"
vector 3 mobilityDrones.sensor1.wlan[0].radio radioChannel:vector ETV
attr interpolationmode sample-hold
attr source radioChannelChanged
attr title "Radio channel, vector"
vector 4 mobilityDrones.sensor2.wlan[0].radio radioMode:vector ETV
attr interpolationmode sample-hold
attr source radioModeChanged
attr title "Radio mode, vector"
vector 5 mobilityDrones.sensor2.wlan[0].radio radioChannel:vector ETV
attr interpolationmode sample-hold
attr source radioChannelChanged
attr title "Radio channel, vector"
vector 6 mobilityDrones.sensor3.wlan[0].radio radioMode:vector ETV
attr interpolationmode sample-hold
attr source radioModeChanged
attr title "Radio mode, vector"
vector 7 mobilityDrones.sensor3.wlan[0].radio radioChannel:vector ETV
attr interpolationmode sample-hold
attr source radioChannelChanged
attr title "Radio channel, vector"
vector 8 mobilityDrones.drones[0].wlan[0].radio receptionState:vector ETV
attr interpolationmode sample-hold
attr source receptionStateChanged
attr title "Radio reception state, vector"
vector 9 mobilityDrones.sensor1.wlan[0].radio receptionState:vector ETV
attr interpolationmode sample-hold
attr source receptionStateChanged
attr title "Radio reception state, vector"
vector 10 mobilityDrones.sensor2.wlan[0].radio receptionState:vector ETV
attr interpolationmode sample-hold
attr source receptionStateChanged
attr title "Radio reception state, vector"
vector 11 mobilityDrones.sensor3.wlan[0].radio receptionState:vector ETV
attr interpolationmode sample-hold
attr source receptionStateChanged
attr title "Radio reception state, vector"
vector 12 mobilityDrones.drones[0].wlan[0].mac.dcf.recoveryProcedure contentionWindowChanged:vector ETV
attr interpolationmode sample-hold
attr title "contention window, vector"
vector 13 mobilityDrones.sensor1.wlan[0].mac.dcf.recoveryProcedure contentionWindowChanged:vector ETV
attr interpolationmode sample-hold
attr title "contention window, vector"
vector 14 mobilityDrones.sensor2.wlan[0].mac.dcf.recoveryProcedure contentionWindowChanged:vector ETV
attr interpolationmode sample-hold
attr title "contention window, vector"
vector 15 mobilityDrones.sensor3.wlan[0].mac.dcf.recoveryProcedure contentionWindowChanged:vector ETV
attr interpolationmode sample-hold
attr title "contention window, vector"
0	0	0	0
0	0	0	0
0	0	0	2
1	0	0	0
2	0	0	0
2	0	0	0
2	0	0	2
3	0	0	0
4	0	0	0
4	0	0	0
4	0	0	2
5	0	0	0
6	0	0	0
6	0	0	0
6	0	0	2
7	0	0	0
8	0	0	1
9	0	0	1
10	0	0	1
11	0	0	1
12	0	0	31
13	0	0	31
14	0	0	31
15	0	0	31
vector 16 mobilityDrones.sensor1.app[0] throughput:vector ETV
attr source throughput(packetReceived)
attr title "throughput, vector"
attr unit bps
vector 17 mobilityDrones.sensor1.app[1] throughput:vector ETV
attr source throughput(packetReceived)
attr title "throughput, vector"
attr unit bps
vector 18 mobilityDrones.sensor2.app[0] throughput:vector ETV
attr source throughput(packetReceived)
attr title "throughput, vector"
attr unit bps
vector 19 mobilityDrones.sensor2.app[1] throughput:vector ETV
attr source throughput(packetReceived)
attr title "throughput, vector"
attr unit bps
vector 20 mobilityDrones.sensor3.app[0] throughput:vector ETV
attr source throughput(packetReceived)
attr title "throughput, vector"
attr unit bps
vector 21 mobilityDrones.sensor3.app[1] throughput:vector ETV
attr source throughput(packetReceived)
attr title "throughput, vector"
attr unit bps
16	17814	0.1	0
16	17814	0.2	0
16	17814	0.3	0
16	17814	0.4	0
16	17814	0.5	0
16	17814	0.6	0
16	17814	0.7	0
16	17814	0.8	0
16	17814	0.9	0
16	17814	1	0
16	17814	1.1	0
16	17814	1.2	0
16	17814	1.3	0
16	17814	1.4	0
16	17814	1.5	0
16	17814	1.6	0
16	17814	1.7	0
16	17814	1.8	0
16	17814	1.9	0
16	17814	2	0
16	17814	2.1	0
16	17814	2.2	0
16	17814	2.3	0
16	17814	2.4	0
16	17814	2.5	0
16	17814	2.6	0
16	17814	2.7	0
16	17814	2.8	0
16	17814	2.9	0
16	17814	3	0
16	17814	3.1	0
16	17814	3.2	0
16	17814	3.3	0
16	17814	3.4	0
16	17814	3.5	0
16	17814	3.6	0
16	17814	3.7	0
16	17814	3.8	0
16	17814	3.9	0
16	17814	4	0
16	17814	4.1	0
16	17814	4.2	0
16	17814	4.3	0
16	17814	4.4	0
16	17814	4.5	0
16	17814	4.6	0
16	17814	4.7	0
16	17814	4.8	0
16	17814	4.9	0
16	17814	5	0
16	17814	5.1	0
16	17814	5.2	0
16	17814	5.3	0
16	17814	5.4	0
16	17814	5.5	0
16	17814	5.6	0
16	17814	5.7	0
16	17814	5.8	0
16	17814	5.9	0
16	17814	6	0
16	17814	6.1	0
16	17814	6.2	0
16	17814	6.3	0
16	17814	6.4	0
16	17814	6.5	0
16	17814	6.6	0
16	17814	6.7	0
16	17814	6.8	0
16	17814	6.9	0
16	17814	7	0
16	17814	7.1	0
16	17814	7.2	0
16	17814	7.3	0
16	17814	7.4	0
16	17814	7.5	0
16	17814	7.6	0
16	17814	7.7	0
16	17814	7.8	0
16	17814	7.9	0
16	17814	8	0
16	17814	8.1	0
16	17814	8.2	0
16	17814	8.3	0
16	17814	8.4	0
16	17814	8.5	0
16	17814	8.6	0
16	17814	8.7	0
16	17814	8.8	0
16	17814	8.9	0
16	17814	9	0
16	17814	9.1	0
16	17814	9.2	0
16	17814	9.3	0
16	17814	9.4	0
16	17814	9.5	0
16	17814	9.6	0
16	17814	9.7	0
16	17814	9.8	0
16	17814	9.9	0
16	17814	10	0
16	17814	10.1	0
16	17814	10.2	0
16	17814	10.3	0
16	17814	10.4	0
16	17814	10.5	0
16	17814	10.6	0
16	17814	10.7	0
16	17814	10.8	0
16	17814	10.9	0
16	17814	11	0
16	17814	11.1	0
16	17814	11.2	0
16	17814	11.3	0
16	17814	11.4	0
16	17814	11.5	0
16	17814	11.6	0
16	17814	11.7	0
16	17814	11.8	0
16	17814	11.9	0
16	17814	12	0
16	17814	12.1	0
16	17814	12.2	0
16	17814	12.3	0
16	17814	12.4	0
16	17814	12.5	0
16	17814	12.6	0
16	17814	12.7	0
16	17814	12.8	0
16	17814	12.9	0
16	17814	13	0
16	17814	13.1	0
16	17814	13.2	0
16	17814	13.3	0
16	17814	13.4	0
16	17814	13.5	0
16	17814	13.6	0
16	17814	13.7	0
16	17814	13.8	0
16	17814	13.9	0
16	17814	14	0
16	17814	14.1	0
16	17814	14.2	0
16	17814	14.3	0
16	17814	14.4	0
16	17814	14.5	0
16	17814	14.6	0
16	17814	14.7	0
16	17814	14.8	0
16	17814	14.9	0
16	17814	15	0
16	17814	15.1	0
16	17814	15.2	0
16	17814	15.3	0
16	17814	15.4	0
16	17814	15.5	0
16	17814	15.6	0
16	17814	15.7	0
16	17814	15.8	0
16	17814	15.9	0
16	17814	16	0
16	17814	16.1	0
16	17814	16.2	0
16	17814	16.3	0
16	17814	16.4	0
16	17814	16.5	0
16	17814	16.6	0
16	17814	16.7	0
16	17814	16.8	0
16	17814	16.9	0
16	17814	17	0
16	17814	17.1	0
16	17814	17.2	0
16	17814	17.3	0
16	17814	17.4	0
16	17814	17.5	0
16	17814	17.6	0
16	17814	17.7	0
16	17814	17.8	0
16	17814	17.9	0
16	17814	18	0
16	17814	18.1	0
16	17814	18.2	0
16	17814	18.3	0
16	17814	18.4	0
16	17814	18.5	0
16	17814	18.6	0
16	17814	18.7	0
16	17814	18.8	0
16	17814	18.9	0
16	17814	19	0
16	17814	19.1	0
16	17814	19.2	0
16	17814	19.3	0
16	17814	19.4	0
16	17814	19.5	0
16	17814	19.6	0
16	17814	19.7	0
16	17814	19.8	0
16	17814	19.9	0
16	17814	20	0
16	17814	20.1	0
16	17814	20.2	0
16	17814	20.3	0
16	17814	20.4	0
16	17814	20.5	0
16	17814	20.6	0
16	17814	20.7	0
16	17814	20.8	0
16	17814	20.9	0
16	17814	21	0
16	17814	21.1	0
16	17814	21.2	0
16	17814	21.3	0
16	17814	21.4	0
16	17814	21.5	0
16	17814	21.6	0
16	17814	21.7	0
16	17814	21.8	0
16	17814	21.9	0
16	17814	22	0
16	17814	22.1	0
16	17814	22.2	0
16	17814	22.3	0
16	17814	22.4	0
16	17814	22.5	0
16	17814	22.6	0
16	17814	22.7	0
16	17814	22.8	0
16	17814	22.9	0
16	17814	23	0
16	17814	23.1	0
16	17814	23.2	0
16	17814	23.3	0
16	17814	23.4	0
16	17814	23.5	0
16	17814	23.6	0
16	17814	23.7	0
16	17814	23.8	0
16	17814	23.9	0
16	17814	24	0
16	17814	24.1	0
16	17814	24.2	0
16	17814	24.3	0
16	17814	24.4	0
16	17814	24.5	0
16	17814	24.6	0
16	17814	24.7	0
16	17814	24.8	0
16	17814	24.9	0
16	17814	25	0
16	17814	25.1	0
16	17814	25.2	0
16	17814	25.3	0
16	17814	25.4	0
16	17814	25.5	0
16	17814	25.6	0
16	17814	25.7	0
16	17814	25.8	0
16	17814	25.9	0
16	17814	26	0
16	17814	26.1	0
16	17814	26.2	0
16	17814	26.3	0
16	17814	26.4	0
16	17814	26.5	0
16	17814	26.6	0
16	17814	26.7	0
16	17814	26.8	0
16	17814	26.9	0
16	17814	27	0
16	17814	27.1	0
16	17814	27.2	0
16	17814	27.3	0
16	17814	27.4	0
16	17814	27.5	0
16	17814	27.6	0
16	17814	27.7	0
16	17814	27.8	0
16	17814	27.9	0
16	17814	28	0
16	17814	28.1	0
16	17814	28.2	0
16	17814	28.3	0
16	17814	28.4	0
16	17814	28.5	0
16	17814	28.6	0
16	17814	28.7	0
16	17814	28.8	0
16	17814	28.9	0
16	17814	29	0
16	17814	29.1	0
16	17814	29.2	0
16	17814	29.3	0
16	17814	29.4	0
16	17814	29.5	0
16	17814	29.6	0
16	17814	29.7	0
16	17814	29.8	0
16	17814	29.9	0
16	17814	30	0
16	17814	30.1	0
16	17814	30.2	0
16	17814	30.3	0
16	17814	30.4	0
16	17814	30.5	0
16	17814	30.6	0
16	17814	30.7	0
16	17814	30.8	0
16	17814	30.9	0
16	17814	31	0
16	17814	31.1	0
16	17814	31.2	0
16	17814	31.3	0
16	17814	31.4	0
16	17814	31.5	0
16	17814	31.6	0
16	17814	31.7	0
16	17814	31.8	0
16	17814	31.9	0
16	17814	32	0
16	17814	32.1	0
16	17814	32.2	0
16	17814	32.3	0
16	17814	32.4	0
16	17814	32.5	0
16	17814	32.6	0
16	17814	32.7	0
16	17814	32.8	0
16	17814	32.9	0
16	17814	33	0
16	17814	33.1	0
16	17814	33.2	0
16	17814	33.3	0
16	17814	33.4	0
16	17814	33.5	0
16	17814	33.6	0
16	17814	33.7	0
16	17814	33.8	0
16	17814	33.9	0
16	17814	34	0
16	17814	34.1	0
16	17814	34.2	0
16	17814	34.3	0
16	17814	34.4	0
16	17814	34.5	0
16	17814	34.6	0
16	17814	34.7	0
16	17814	34.8	0
16	17814	34.9	0
16	17814	35	0
16	17814	35.1	0
16	17814	35.2	0
16	17814	35.3	0
16	17814	35.4	0
16	17814	35.5	0
16	17814	35.6	0
16	17814	35.7	0
16	17814	35.8	0
16	17814	35.9	0
16	17814	36	0
16	17814	36.1	0
16	17814	36.2	0
16	17814	36.3	0
16	17814	36.4	0
16	17814	36.5	0
16	17814	36.6	0
16	17814	36.7	0
16	17814	36.8	0
16	17814	36.9	0
16	17814	37	0
16	17814	37.1	0
16	17814	37.2	0
16	17814	37.3	0
16	17814	37.4	0
16	17814	37.5	0
16	17814	37.6	0
16	17814	37.7	0
16	17814	37.8	0
16	17814	37.9	0
16	17814	38	0
16	17814	38.1	0
16	17814	38.2	0
16	17814	38.3	0
16	17814	38.4	0
16	17814	38.5	0
16	17814	38.6	0
16	17814	38.7	0
16	17814	38.8	0
16	17814	38.9	0
16	17814	39	0
16	17814	39.1	0
16	17814	39.2	0
16	17814	39.3	0
16	17814	39.4	0
16	17814	39.5	0
16	17814	39.6	0
16	17814	39.7	0
16	17814	39.8	0
16	17814	39.9	0
16	17814	40	0
16	17814	40.1	0
16	17814	40.2	0
16	17814	40.3	0
16	17814	40.4	0
16	17814	40.5	0
16	17814	40.6	0
16	17814	40.7	0
16	17814	40.8	0
16	17814	40.9	0
16	17814	41	0
16	17814	41.1	0
16	17814	41.2	0
16	17814	41.3	0
16	17814	41.4	0
16	17814	41.5	0
16	17814	41.6	0
16	17814	41.7	0
16	17814	41.8	0
16	17814	41.9	0
16	17814	42	0
16	17814	42.1	0
16	17814	42.2	0
16	17814	42.3	0
16	17814	42.4	0
16	17814	42.5	0
16	17814	42.6	0
16	17814	42.7	0
16	17814	42.8	0
16	17814	42.9	0
16	17814	43	0
16	17814	43.1	0
16	17814	43.2	0
16	17814	43.3	0
16	17814	43.4	0
16	17814	43.5	0
16	17814	43.6	0
16	17814	43.7	0
16	17814	43.8	0
16	17814	43.9	0
16	17814	44	0
16	17814	44.1	0
16	17814	44.2	0
16	17814	44.3	0
16	17814	44.4	0
16	17814	44.5	0
16	17814	44.6	0
16	17814	44.7	0
16	17814	44.8	0
16	17814	44.9	0
16	17814	45	0
16	17814	45.1	0
16	17814	45.2	0
16	17814	45.3	0
16	17814	45.4	0
16	17814	45.5	0
16	17814	45.6	0
16	17814	45.7	0
16	17814	45.8	0
16	17814	45.9	0
16	17814	46	0
16	17814	46.1	0
16	17814	46.2	0
16	17814	46.3	0
16	17814	46.4	0
16	17814	46.5	0
16	17814	46.6	0
16	17814	46.7	0
16	17814	46.8	0
16	17814	46.9	0
16	17814	47	0
16	17814	47.1	0
16	17814	47.2	0
16	17814	47.3	0
16	17814	47.4	0
16	17814	47.5	0
16	17814	47.6	0
16	17814	47.7	0
16	17814	47.8	0
16	17814	47.9	0
16	17814	48	0
16	17814	48.1	0
16	17814	48.2	0
16	17814	48.3	0
16	17814	48.4	0
16	17814	48.5	0
16	17814	48.6	0
16	17814	48.7	0
16	17814	48.8	0
16	17814	48.9	0
16	17814	49	0
16	17814	49.1	0
16	17814	49.2	0
16	17814	49.3	0
16	17814	49.4	0
16	17814	49.5	0
16	17814	49.6	0
16	17814	49.7	0
16	17814	49.8	0
16	17814	49.9	0
16	17814	50	0
16	17814	50.1	0
16	17814	50.2	0
16	17814	50.3	0
16	17814	50.4	0
16	17814	50.5	0
16	17814	50.6	0
16	17814	50.7	0
16	17814	50.8	0
16	17814	50.9	0
16	17814	51	0
16	17814	51.1	0
16	17814	51.2	0
16	17814	51.3	0
16	17814	51.4	0
16	17814	51.5	0
16	17814	51.6	0
16	17814	51.7	0
16	17814	51.8	0
16	17814	51.9	0
16	17814	52	0
16	17814	52.1	0
16	17814	52.2	0
16	17814	52.3	0
16	17814	52.4	0
16	17814	52.5	0
16	17814	52.6	0
16	17814	52.7	0
16	17814	52.8	0
16	17814	52.9	0
16	17814	53	0
16	17814	53.1	0
16	17814	53.2	0
16	17814	53.3	0
16	17814	53.4	0
16	17814	53.5	0
16	17814	53.6	0
16	17814	53.7	0
16	17814	53.8	0
16	17814	53.9	0
16	17814	54	0
16	17814	54.1	0
16	17814	54.2	0
16	17814	54.3	0
16	17814	54.4	0
16	17814	54.5	0
16	17814	54.6	0
16	17814	54.7	0
16	17814	54.8	0
16	17814	54.9	0
16	17814	55	0
16	17814	55.1	0
16	17814	55.2	0
16	17814	55.3	0
16	17814	55.4	0
16	17814	55.5	0
16	17814	55.6	0
16	17814	55.7	0
16	17814	55.8	0
16	17814	55.9	0
16	17814	56	0
16	17814	56.1	0
16	17814	56.2	0
16	17814	56.3	0
16	17814	56.4	0
16	17814	56.5	0
16	17814	56.6	0
16	17814	56.7	0
16	17814	56.8	0
16	17814	56.9	0
16	17814	57	0
16	17814	57.1	0
16	17814	57.2	0
16	17814	57.3	0
16	17814	57.4	0
16	17814	57.5	0
16	17814	57.6	0
16	17814	57.7	0
16	17814	57.8	0
16	17814	57.9	0
16	17814	58	0
16	17814	58.1	0
16	17814	58.2	0
16	17814	58.3	0
16	17814	58.4	0
16	17814	58.5	0
16	17814	58.6	0
16	17814	58.7	0
16	17814	58.8	0
16	17814	58.9	0
16	17814	59	0
16	17814	59.1	0
16	17814	59.2	0
16	17814	59.3	0
16	17814	59.4	0
16	17814	59.5	0
16	17814	59.6	0
16	17814	59.7	0
16	17814	59.8	0
16	17814	59.9	0
16	17814	60	0
16	17814	60.1	0
16	17814	60.2	0
16	17814	60.3	0
16	17814	60.4	0
16	17814	60.5	0
16	17814	60.6	0
16	17814	60.7	0
16	17814	60.8	0
16	17814	60.9	0
16	17814	61	0
16	17814	61.1	0
16	17814	61.2	0
16	17814	61.3	0
16	17814	61.4	0
16	17814	61.5	0
16	17814	61.6	0
16	17814	61.7	0
16	17814	61.8	0
16	17814	61.9	0
16	17814	62	0
16	17814	62.1	0
16	17814	62.2	0
16	17814	62.3	0
16	17814	62.4	0
16	17814	62.5	0
16	17814	62.6	0
16	17814	62.7	0
16	17814	62.8	0
16	17814	62.9	0
16	17814	63	0
16	17814	63.1	0
16	17814	63.2	0
16	17814	63.3	0
16	17814	63.4	0
16	17814	63.5	0
16	17814	63.6	0
16	17814	63.7	0
16	17814	63.8	0
16	17814	63.9	0
16	17814	64	0
16	17814	64.1	0
16	17814	64.2	0
16	17814	64.3	0
16	17814	64.4	0
16	17814	64.5	0
16	17814	64.6	0
16	17814	64.7	0
16	17814	64.8	0
16	17814	64.9	0
16	17814	65	0
16	17814	65.1	0
16	17814	65.2	0
16	17814	65.3	0
16	17814	65.4	0
16	17814	65.5	0
16	17814	65.6	0
16	17814	65.7	0
16	17814	65.8	0
16	17814	65.9	0
16	17814	66	0
16	17814	66.1	0
16	17814	66.2	0
16	17814	66.3	0
16	17814	66.4	0
16	17814	66.5	0
16	17814	66.6	0
16	17814	66.7	0
16	17814	66.8	0
16	17814	66.9	0
16	17814	67	0
16	17814	67.1	0
16	17814	67.2	0
16	17814	67.3	0
16	17814	67.4	0
16	17814	67.5	0
16	17814	67.6	0
16	17814	67.7	0
16	17814	67.8	0
16	17814	67.9	0
16	17814	68	0
16	17814	68.1	0
16	17814	68.2	0
16	17814	68.3	0
16	17814	68.4	0
16	17814	68.5	0
16	17814	68.6	0
16	17814	68.7	0
16	17814	68.8	0
16	17814	68.9	0
16	17814	69	0
16	17814	69.1	0
16	17814	69.2	0
16	17814	69.3	0
16	17814	69.4	0
16	17814	69.5	0
16	17814	69.6	0
16	17814	69.7	0
16	17814	69.8	0
16	17814	69.9	0
16	17814	70	0
16	17814	70.1	0
16	17814	70.2	0
16	17814	70.3	0
16	17814	70.4	0
16	17814	70.5	0
16	17814	70.6	0
16	17814	70.7	0
16	17814	70.8	0
16	17814	70.9	0
16	17814	71	0
16	17814	71.1	0
16	17814	71.2	0
16	17814	71.3	0
16	17814	71.4	0
16	17814	71.5	0
16	17814	71.6	0
16	17814	71.7	0
16	17814	71.8	0
16	17814	71.9	0
16	17814	72	0
16	17814	72.1	0
16	17814	72.2	0
16	17814	72.3	0
16	17814	72.4	0
16	17814	72.5	0
16	17814	72.6	0
16	17814	72.7	0
16	17814	72.8	0
16	17814	72.9	0
16	17814	73	0
16	17814	73.1	0
16	17814	73.2	0
16	17814	73.3	0
16	17814	73.4	0
16	17814	73.5	0
16	17814	73.6	0
16	17814	73.7	0
16	17814	73.8	0
16	17814	73.9	0
16	17814	74	0
16	17814	74.1	0
16	17814	74.2	0
16	17814	74.3	0
16	17814	74.4	0
16	17814	74.5	0
16	17814	74.6	0
16	17814	74.7	0
16	17814	74.8	0
16	17814	74.9	0
16	17814	75	0
16	17814	75.1	0
16	17814	75.2	0
16	17814	75.3	0
16	17814	75.4	0
16	17814	75.5	0
16	17814	75.6	0
16	17814	75.7	0
16	17814	75.8	0
16	17814	75.9	0
16	17814	76	0
16	17814	76.1	0
16	17814	76.2	0
16	17814	76.3	0
16	17814	76.4	0
16	17814	76.5	0
16	17814	76.6	0
16	17814	76.7	0
16	17814	76.8	0
16	17814	76.9	0
16	17814	77	0
16	17814	77.1	0
16	17814	77.2	0
16	17814	77.3	0
16	17814	77.4	0
16	17814	77.5	0
16	17814	77.6	0
16	17814	77.7	0
16	17814	77.8	0
16	17814	77.9	0
16	17814	78	0
16	17814	78.1	0
16	17814	78.2	0
16	17814	78.3	0
16	17814	78.4	0
16	17814	78.5	0
16	17814	78.6	0
16	17814	78.7	0
16	17814	78.8	0
16	17814	78.9	0
16	17814	79	0
16	17814	79.1	0
16	17814	79.2	0
16	17814	79.3	0
16	17814	79.4	0
16	17814	79.5	0
16	17814	79.6	0
16	17814	79.7	0
16	17814	79.8	0
16	17814	79.9	0
16	17814	80	0
16	17814	80.1	0
16	17814	80.2	0
16	17814	80.3	0
16	17814	80.4	0
16	17814	80.5	0
16	17814	80.6	0
16	17814	80.7	0
16	17814	80.8	0
16	17814	80.9	0
16	17814	81	0
16	17814	81.1	0
16	17814	81.2	0
16	17814	81.3	0
16	17814	81.4	0
16	17814	81.5	0
16	17814	81.6	0
16	17814	81.7	0
16	17814	81.8	0
16	17814	81.9	0
16	17814	82	0
16	17814	82.1	0
16	17814	82.2	0
16	17814	82.3	0
16	17814	82.4	0
16	17814	82.5	0
16	17814	82.6	0
16	17814	82.7	0
16	17814	82.8	0
16	17814	82.9	0
16	17814	83	0
16	17814	83.1	0
16	17814	83.2	0
16	17814	83.3	0
16	17814	83.4	0
16	17814	83.5	0
16	17814	83.6	0
16	17814	83.7	0
16	17814	83.8	0
16	17814	83.9	0
16	17814	84	0
16	17814	84.1	0
16	17814	84.2	0
16	17814	84.3	0
16	17814	84.4	0
16	17814	84.5	0
16	17814	84.6	0
16	17814	84.7	0
16	17814	84.8	0
16	17814	84.9	0
16	17814	85	0
16	17814	85.1	0
16	17814	85.2	0
16	17814	85.3	0
16	17814	85.4	0
16	17814	85.5	0
16	17814	85.6	0
16	17814	85.7	0
16	17814	85.8	0
16	17814	85.9	0
16	17814	86	0
16	17814	86.1	0
16	17814	86.2	0
16	17814	86.3	0
16	17814	86.4	0
16	17814	86.5	0
16	17814	86.6	0
16	17814	86.7	0
16	17814	86.8	0
16	17814	86.9	0
16	17814	87	0
16	17814	87.1	0
16	17814	87.2	0
16	17814	87.3	0
16	17814	87.4	0
16	17814	87.5	0
16	17814	87.6	0
16	17814	87.7	0
16	17814	87.8	0
16	17814	87.9	0
16	17814	88	0
16	17814	88.1	0
16	17814	88.2	0
16	17814	88.3	0
16	17814	88.4	0
16	17814	88.5	0
16	17814	88.6	0
16	17814	88.7	0
16	17814	88.8	0
16	17814	88.9	0
16	17814	89	0
16	17814	89.1	0
16	17814	89.2	0
16	17814	89.3	0
16	17814	89.4	0
16	17814	89.5	0
16	17814	89.6	0
16	17814	89.7	0
16	17814	89.8	0
16	17814	89.9	0
16	17814	90	0
16	17814	90.1	0
16	17814	90.2	0
16	17814	90.3	0
16	17814	90.4	0
16	17814	90.5	0
16	17814	90.6	0
16	17814	90.7	0
16	17814	90.8	0
16	17814	90.9	0
16	17814	91	0
16	17814	91.1	0
16	17814	91.2	0
16	17814	91.3	0
16	17814	91.4	0
16	17814	91.5	0
16	17814	91.6	0
16	17814	91.7	0
16	17814	91.8	0
16	17814	91.9	0
16	17814	92	0
16	17814	92.1	0
16	17814	92.2	0
16	17814	92.3	0
16	17814	92.4	0
16	17814	92.5	0
16	17814	92.6	0
16	17814	92.7	0
16	17814	92.8	0
16	17814	92.9	0
16	17814	93	0
16	17814	93.1	0
16	17814	93.2	0
16	17814	93.3	0
16	17814	93.4	0
16	17814	93.5	0
16	17814	93.6	0
16	17814	93.7	0
16	17814	93.8	0
16	17814	93.9	0
16	17814	94	0
16	17814	94.1	0
16	17814	94.2	0
16	17814	94.3	0
16	17814	94.4	0
16	17814	94.5	0
16	17814	94.6	0
16	17814	94.7	0
16	17814	94.8	0
16	17814	94.9	0
16	17814	95	0
16	17814	95.1	0
16	17814	95.2	0
16	17814	95.3	0
16	17814	95.4	0
16	17814	95.5	0
16	17814	95.6	0
16	17814	95.7	0
16	17814	95.8	0
16	17814	95.9	0
16	17814	96	0
16	17814	96.1	0
16	17814	96.2	0
16	17814	96.3	0
16	17814	96.4	0
16	17814	96.5	0
16	17814	96.6	0
16	17814	96.7	0
16	17814	96.8	0
16	17814	96.9	0
16	17814	97	0
16	17814	97.1	0
16	17814	97.2	0
16	17814	97.3	0
16	17814	97.4	0
16	17814	97.5	0
16	17814	97.6	0
16	17814	97.7	0
16	17814	97.8	0
16	17814	97.9	0
16	17814	98	0
16	17814	98.1	0
16	17814	98.2	0
16	17814	98.3	0
16	17814	98.4	0
16	17814	98.5	0
16	17814	98.6	0
16	17814	98.7	0
16	17814	98.8	0
16	17814	98.9	0
16	17814	99	0
16	17814	99.1	0
16	17814	99.2	0
16	17814	99.3	0
16	17814	99.4	0
16	17814	99.5	0
16	17814	99.6	0
16	17814	99.7	0
16	17814	99.8	0
16	17814	99.9	0
16	17814	100	0
16	17814	100.1	0
16	17814	100.2	0
16	17814	100.3	0
16	17814	100.4	0
16	17814	100.5	0
16	17814	100.6	0
16	17814	100.7	0
16	17814	100.8	0
16	17814	100.9	0
16	17814	101	0
16	17814	101.1	0
16	17814	101.2	0
16	17814	101.3	0
16	17814	101.4	0
16	17814	101.5	0
16	17814	101.6	0
16	17814	101.7	0
16	17814	101.8	0
16	17814	101.9	0
16	17814	102	0
16	17814	102.1	0
16	17814	102.2	0
16	17814	102.3	0
16	17814	102.4	0
16	17814	102.5	0
16	17814	102.6	0
16	17814	102.7	0
16	17814	102.8	0
16	17814	102.9	0
16	17814	103	0
16	17814	103.1	0
16	17814	103.2	0
16	17814	103.3	0
16	17814	103.4	0
16	17814	103.5	0
16	17814	103.6	0
16	17814	103.7	0
16	17814	103.8	0
16	17814	103.9	0
16	17814	104	0
16	17814	104.1	0
16	17814	104.2	0
16	17814	104.3	0
16	17814	104.4	0
16	17814	104.5	0
16	17814	104.6	0
16	17814	104.7	0
16	17814	104.8	0
16	17814	104.9	0
16	17814	105	0
16	17814	105.1	0
16	17814	105.2	0
16	17814	105.3	0
16	17814	105.4	0
16	17814	105.5	0
16	17814	105.6	0
16	17814	105.7	0
16	17814	105.8	0
16	17814	105.9	0
16	17814	106	0
16	17814	106.1	0
16	17814	106.2	0
16	17814	106.3	0
16	17814	106.4	0
16	17814	106.5	0
16	17814	106.6	0
16	17814	106.7	0
16	17814	106.8	0
16	17814	106.9	0
16	17814	107	0
16	17814	107.1	0
16	17814	107.2	0
16	17814	107.3	0
16	17814	107.4	0
16	17814	107.5	0
16	17814	107.6	0
16	17814	107.7	0
16	17814	107.8	0
16	17814	107.9	0
16	17814	108	0
16	17814	108.1	0
16	17814	108.2	0
16	17814	108.3	0
16	17814	108.4	0
16	17814	108.5	0
16	17814	108.6	0
16	17814	108.7	0
16	17814	108.8	0
16	17814	108.9	0
16	17814	109	0
16	17814	109.1	0
16	17814	109.2	0
16	17814	109.3	0
16	17814	109.4	0
16	17814	109.5	0
16	17814	109.6	0
16	17814	109.7	0
16	17814	109.8	0
16	17814	109.9	0
16	17814	110	0
16	17814	110.1	0
16	17814	110.2	0
16	17814	110.3	0
16	17814	110.4	0
16	17814	110.5	0
16	17814	110.6	0
16	17814	110.7	0
16	17814	110.8	0
16	17814	110.9	0
16	17814	111	0
16	17814	111.1	0
16	17814	111.2	0
16	17814	111.3	0
16	17814	111.4	0
16	17814	111.5	0
16	17814	111.6	0
16	17814	111.7	0
16	17814	111.8	0
16	17814	111.9	0
16	17814	112	0
16	17814	112.1	0
16	17814	112.2	0
16	17814	112.3	0
16	17814	112.4	0
16	17814	112.5	0
16	17814	112.6	0
16	17814	112.7	0
16	17814	112.8	0
16	17814	112.9	0
16	17814	113	0
16	17814	113.1	0
16	17814	113.2	0
16	17814	113.3	0
16	17814	113.4	0
16	17814	113.5	0
16	17814	113.6	0
16	17814	113.7	0
16	17814	113.8	0
16	17814	113.9	0
16	17814	114	0
16	17814	114.1	0
16	17814	114.2	0
16	17814	114.3	0
16	17814	114.4	0
16	17814	114.5	0
16	17814	114.6	0
16	17814	114.7	0
16	17814	114.8	0
16	17814	114.9	0
16	17814	115	0
16	17814	115.1	0
16	17814	115.2	0
16	17814	115.3	0
16	17814	115.4	0
16	17814	115.5	0
16	17814	115.6	0
16	17814	115.7	0
16	17814	115.8	0
16	17814	115.9	0
16	17814	116	0
16	17814	116.1	0
16	17814	116.2	0
16	17814	116.3	0
16	17814	116.4	0
16	17814	116.5	0
16	17814	116.6	0
16	17814	116.7	0
16	17814	116.8	0
16	17814	116.9	0
16	17814	117	0
16	17814	117.1	0
16	17814	117.2	0
16	17814	117.3	0
16	17814	117.4	0
16	17814	117.5	0
16	17814	117.6	0
16	17814	117.7	0
16	17814	117.8	0
16	17814	117.9	0
16	17814	118	0
16	17814	118.1	0
16	17814	118.2	0
16	17814	118.3	0
16	17814	118.4	0
16	17814	118.5	0
16	17814	118.6	0
16	17814	118.7	0
16	17814	118.8	0
16	17814	118.9	0
16	17814	119	0
16	17814	119.1	0
16	17814	119.2	0
16	17814	119.3	0
16	17814	119.4	0
16	17814	119.5	0
16	17814	119.6	0
16	17814	119.7	0
16	17814	119.8	0
16	17814	119.9	0
16	17814	120	0
16	17814	120.1	0
16	17814	120.2	0
16	17814	120.3	0
16	17814	120.4	0
16	17814	120.5	0
16	17814	120.6	0
16	17814	120.7	0
16	17814	120.8	0
16	17814	120.9	0
16	17814	121	0
16	17814	121.1	0
16	17814	121.2	0
16	17814	121.3	0
16	17814	121.4	0
16	17814	121.5	0
16	17814	121.6	0
16	17814	121.7	0
16	17814	121.8	0
16	17814	121.9	0
16	17814	122	0
16	17814	122.1	0
16	17814	122.2	0
16	17814	122.3	0
16	17814	122.4	0
16	17814	122.5	0
16	17814	122.6	0
16	17814	122.7	0
16	17814	122.8	0
16	17814	122.9	0
16	17814	123	0
16	17814	123.1	0
16	17814	123.2	0
16	17814	123.3	0
16	17814	123.4	0
16	17814	123.5	0
16	17814	123.6	0
16	17814	123.7	0
16	17814	123.8	0
16	17814	123.9	0
16	17814	124	0
16	17814	124.1	0
16	17814	124.2	0
16	17814	124.3	0
16	17814	124.4	0
16	17814	124.5	0
16	17814	124.6	0
16	17814	124.7	0
16	17814	124.8	0
16	17814	124.9	0
16	17814	125	0
16	17814	125.1	0
16	17814	125.2	0
16	17814	125.3	0
16	17814	125.4	0
16	17814	125.5	0
16	17814	125.6	0
16	17814	125.7	0
16	17814	125.8	0
16	17814	125.9	0
16	17814	126	0
16	17814	126.1	0
16	17814	126.2	0
16	17814	126.3	0
16	17814	126.4	0
16	17814	126.5	0
16	17814	126.6	0
16	17814	126.7	0
16	17814	126.8	0
16	17814	126.9	0
16	17814	127	0
16	17814	127.1	0
16	17814	127.2	0
16	17814	127.3	0
16	17814	127.4	0
16	17814	127.5	0
16	17814	127.6	0
16	17814	127.7	0
16	17814	127.8	0
16	17814	127.9	0
16	17814	128	0
16	17814	128.1	0
16	17814	128.2	0
16	17814	128.3	0
16	17814	128.4	0
16	17814	128.5	0
16	17814	128.6	0
16	17814	128.7	0
16	17814	128.8	0
16	17814	128.9	0
16	17814	129	0
16	17814	129.1	0
16	17814	129.2	0
16	17814	129.3	0
16	17814	129.4	0
16	17814	129.5	0
16	17814	129.6	0
16	17814	129.7	0
16	17814	129.8	0
16	17814	129.9	0
16	17814	130	0
16	17814	130.1	0
16	17814	130.2	0
16	17814	130.3	0
16	17814	130.4	0
16	17814	130.5	0
16	17814	130.6	0
16	17814	130.7	0
16	17814	130.8	0
16	17814	130.9	0
16	17814	131	0
16	17814	131.1	0
16	17814	131.2	0
16	17814	131.3	0
16	17814	131.4	0
16	17814	131.5	0
16	17814	131.6	0
16	17814	131.7	0
16	17814	131.8	0
16	17814	131.9	0
16	17814	132	0
16	17814	132.1	0
16	17814	132.2	0
16	17814	132.3	0
16	17814	132.4	0
16	17814	132.5	0
16	17814	132.6	0
16	17814	132.7	0
16	17814	132.8	0
16	17814	132.9	0
16	17814	133	0
16	17814	133.1	0
16	17814	133.2	0
16	17814	133.3	0
16	17814	133.4	0
16	17814	133.5	0
16	17814	133.6	0
16	17814	133.7	0
16	17814	133.8	0
16	17814	133.9	0
16	17814	134	0
16	17814	134.1	0
16	17814	134.2	0
16	17814	134.3	0
16	17814	134.4	0
16	17814	134.5	0
16	17814	134.6	0
16	17814	134.7	0
16	17814	134.8	0
16	17814	134.9	0
16	17814	135	0
16	17814	135.1	0
16	17814	135.2	0
16	17814	135.3	0
16	17814	135.4	0
16	17814	135.5	0
16	17814	135.6	0
16	17814	135.7	0
16	17814	135.8	0
16	17814	135.9	0
16	17814	136	0
16	17814	136.1	0
16	17814	136.2	0
16	17814	136.3	0
16	17814	136.4	0
16	17814	136.5	0
16	17814	136.6	0
16	17814	136.7	0
16	17814	136.8	0
16	17814	136.9	0
16	17814	137	0
16	17814	137.1	0
16	17814	137.2	0
16	17814	137.3	0
16	17814	137.4	0
16	17814	137.5	0
16	17814	137.6	0
16	17814	137.7	0
16	17814	137.8	0
16	17814	137.9	0
16	17814	138	0
16	17814	138.1	0
16	17814	138.2	0
16	17814	138.3	0
16	17814	138.4	0
16	17814	138.5	0
16	17814	138.6	0
16	17814	138.7	0
16	17814	138.8	0
16	17814	138.9	0
16	17814	139	0
16	17814	139.1	0
16	17814	139.2	0
16	17814	139.3	0
16	17814	139.4	0
16	17814	139.5	0
16	17814	139.6	0
16	17814	139.7	0
16	17814	139.8	0
16	17814	139.9	0
16	17814	140	0
16	17814	140.1	0
16	17814	140.2	0
16	17814	140.3	0
16	17814	140.4	0
16	17814	140.5	0
16	17814	140.6	0
16	17814	140.7	0
16	17814	140.8	0
16	17814	140.9	0
16	17814	141	0
16	17814	141.1	0
16	17814	141.2	0
16	17814	141.3	0
16	17814	141.4	0
16	17814	141.5	0
16	17814	141.6	0
16	17814	141.7	0
16	17814	141.8	0
16	17814	141.9	0
16	17814	142	0
16	17814	142.1	0
16	17814	142.2	0
16	17814	142.3	0
16	17814	142.4	0
16	17814	142.5	0
16	17814	142.6	0
16	17814	142.7	0
16	17814	142.8	0
16	17814	142.9	0
16	17814	143	0
16	17814	143.1	0
16	17814	143.2	0
16	17814	143.3	0
16	17814	143.4	0
16	17814	143.5	0
16	17814	143.6	0
16	17814	143.7	0
16	17814	143.8	0
16	17814	143.9	0
16	17814	144	0
16	17814	144.1	0
16	17814	144.2	0
16	17814	144.3	0
16	17814	144.4	0
16	17814	144.5	0
16	17814	144.6	0
16	17814	144.7	0
16	17814	144.8	0
16	17814	144.9	0
16	17814	145	0
16	17814	145.1	0
16	17814	145.2	0
16	17814	145.3	0
16	17814	145.4	0
16	17814	145.5	0
16	17814	145.6	0
16	17814	145.7	0
16	17814	145.8	0
16	17814	145.9	0
16	17814	146	0
16	17814	146.1	0
16	17814	146.2	0
16	17814	146.3	0
16	17814	146.4	0
16	17814	146.5	0
16	17814	146.6	0
16	17814	146.7	0
16	17814	146.8	0
16	17814	146.9	0
16	17814	147	0
16	17814	147.1	0
16	17814	147.2	0
16	17814	147.3	0
16	17814	147.4	0
16	17814	147.5	0
16	17814	147.6	0
16	17814	147.7	0
16	17814	147.8	0
16	17814	147.9	0
16	17814	148	0
16	17814	148.1	0
16	17814	148.2	0
16	17814	148.3	0
16	17814	148.4	0
16	17814	148.5	0
16	17814	148.6	0
16	17814	148.7	0
16	17814	148.8	0
16	17814	148.9	0
16	17814	149	0
16	17814	149.1	0
16	17814	149.2	0
16	17814	149.3	0
16	17814	149.4	0
16	17814	149.5	0
16	17814	149.6	0
16	17814	149.7	0
16	17814	149.8	0
16	17814	149.9	0
16	17814	150	0
16	17814	150.1	0
16	17814	150.2	0
16	17814	150.3	0
16	17814	150.4	0
16	17814	150.5	0
16	17814	150.6	0
16	17814	150.7	0
16	17814	150.8	0
16	17814	150.9	0
16	17814	151	0
16	17814	151.1	0
16	17814	151.2	0
16	17814	151.3	0
16	17814	151.4	0
16	17814	151.5	0
16	17814	151.6	0
16	17814	151.7	0
16	17814	151.8	0
16	17814	151.9	0
16	17814	152	0
16	17814	152.1	0
16	17814	152.2	0
16	17814	152.3	0
16	17814	152.4	0
16	17814	152.5	0
16	17814	152.6	0
16	17814	152.7	0
16	17814	152.8	0
16	17814	152.9	0
16	17814	153	0
16	17814	153.1	0
16	17814	153.2	0
16	17814	153.3	0
16	17814	153.4	0
16	17814	153.5	0
16	17814	153.6	0
16	17814	153.7	0
16	17814	153.8	0
16	17814	153.9	0
16	17814	154	0
16	17814	154.1	0
16	17814	154.2	0
16	17814	154.3	0
16	17814	154.4	0
16	17814	154.5	0
16	17814	154.6	0
16	17814	154.7	0
16	17814	154.8	0
16	17814	154.9	0
16	17814	155	0
16	17814	155.1	0
16	17814	155.2	0
16	17814	155.3	0
16	17814	155.4	0
16	17814	155.5	0
16	17814	155.6	0
16	17814	155.7	0
16	17814	155.8	0
16	17814	155.9	0
16	17814	156	0
16	17814	156.1	0
16	17814	156.2	0
16	17814	156.3	0
16	17814	156.4	0
16	17814	156.5	0
16	17814	156.6	0
16	17814	156.7	0
16	17814	156.8	0
16	17814	156.9	0
16	17814	157	0
16	17814	157.1	0
16	17814	157.2	0
16	17814	157.3	0
16	17814	157.4	0
16	17814	157.5	0
16	17814	157.6	0
16	17814	157.7	0
16	17814	157.8	0
16	17814	157.9	0
16	17814	158	0
16	17814	158.1	0
16	17814	158.2	0
16	17814	158.3	0
16	17814	158.4	0
16	17814	158.5	0
16	17814	158.6	0
16	17814	158.7	0
16	17814	158.8	0
16	17814	158.9	0
16	17814	159	0
16	17814	159.1	0
16	17814	159.2	0
16	17814	159.3	0
16	17814	159.4	0
16	17814	159.5	0
16	17814	159.6	0
16	17814	159.7	0
16	17814	159.8	0
16	17814	159.9	0
16	17814	160	0
16	17814	160.1	0
16	17814	160.2	0
16	17814	160.3	0
16	17814	160.4	0
16	17814	160.5	0
16	17814	160.6	0
16	17814	160.7	0
16	17814	160.8	0
16	17814	160.9	0
16	17814	161	0
16	17814	161.1	0
16	17814	161.2	0
16	17814	161.3	0
16	17814	161.4	0
16	17814	161.5	0
16	17814	161.6	0
16	17814	161.7	0
16	17814	161.8	0
16	17814	161.9	0
16	17814	162	0
16	17814	162.1	0
16	17814	162.2	0
16	17814	162.3	0
16	17814	162.4	0
16	17814	162.5	0
16	17814	162.6	0
16	17814	162.7	0
16	17814	162.8	0
16	17814	162.9	0
16	17814	163	0
16	17814	163.1	0
16	17814	163.2	0
16	17814	163.3	0
16	17814	163.4	0
16	17814	163.5	0
16	17814	163.6	0
16	17814	163.7	0
16	17814	163.8	0
16	17814	163.9	0
16	17814	164	0
16	17814	164.1	0
16	17814	164.2	0
16	17814	164.3	0
16	17814	164.4	0
16	17814	164.5	0
16	17814	164.6	0
16	17814	164.7	0
16	17814	164.8	0
16	17814	164.9	0
16	17814	165	0
16	17814	165.1	0
16	17814	165.2	0
16	17814	165.3	0
16	17814	165.4	0
16	17814	165.5	0
16	17814	165.6	0
16	17814	165.7	0
16	17814	165.8	0
16	17814	165.9	0
16	17814	166	0
16	17814	166.1	0
16	17814	166.2	0
16	17814	166.3	0
16	17814	166.4	0
16	17814	166.5	0
16	17814	166.6	0
16	17814	166.7	0
16	17814	166.8	0
16	17814	166.9	0
16	17814	167	0
16	17814	167.1	0
16	17814	167.2	0
16	17814	167.3	0
16	17814	167.4	0
16	17814	167.5	0
16	17814	167.6	0
16	17814	167.7	0
16	17814	167.8	0
16	17814	167.9	0
16	17814	168	0
16	17814	168.1	0
16	17814	168.2	0
16	17814	168.3	0
16	17814	168.4	0
16	17814	168.5	0
16	17814	168.6	0
16	17814	168.7	0
16	17814	168.8	0
16	17814	168.9	0
16	17814	169	0
16	17814	169.1	0
16	17814	169.2	0
16	17814	169.3	0
16	17814	169.4	0
16	17814	169.5	0
16	17814	169.6	0
16	17814	169.7	0
16	17814	169.8	0
16	17814	169.9	0
16	17814	170	0
16	17814	170.1	0
16	17814	170.2	0
16	17814	170.3	0
16	17814	170.4	0
16	17814	170.5	0
16	17814	170.6	0
16	17814	170.7	0
16	17814	170.8	0
16	17814	170.9	0
16	17814	171	0
16	17814	171.1	0
16	17814	171.2	0
16	17814	171.3	0
16	17814	171.4	0
16	17814	171.5	0
16	17814	171.6	0
16	17814	171.7	0
16	17814	171.8	0
16	17814	171.9	0
16	17814	172	0
16	17814	172.1	0
16	17814	172.2	0
16	17814	172.3	0
16	17814	172.4	0
16	17814	172.5	0
16	17814	172.6	0
16	17814	172.7	0
16	17814	172.8	0
16	17814	172.9	0
16	17814	173	0
16	17814	173.1	0
16	17814	173.2	0
16	17814	173.3	0
16	17814	173.4	0
16	17814	173.5	0
16	17814	173.6	0
16	17814	173.7	0
16	17814	173.8	0
16	17814	173.9	0
16	17814	174	0
16	17814	174.1	0
16	17814	174.2	0
16	17814	174.3	0
16	17814	174.4	0
16	17814	174.5	0
16	17814	174.6	0
16	17814	174.7	0
16	17814	174.8	0
16	17814	174.9	0
16	17814	175	0
16	17814	175.1	0
16	17814	175.2	0
16	17814	175.3	0
16	17814	175.4	0
16	17814	175.5	0
16	17814	175.6	0
16	17814	175.7	0
16	17814	175.8	0
16	17814	175.9	0
16	17814	176	0
16	17814	176.1	0
16	17814	176.2	0
16	17814	176.3	0
16	17814	176.4	0
16	17814	176.5	0
16	17814	176.6	0
16	17814	176.7	0
16	17814	176.8	0
16	17814	176.9	0
16	17814	177	0
16	17814	177.1	0
16	17814	177.2	0
16	17814	177.3	0
16	17814	177.4	0
16	17814	177.5	0
16	17814	177.6	0
16	17814	177.7	0
16	17814	177.8	0
16	17814	177.9	0
16	17814	178	0
16	17814	178.1	0
16	17814	178.2	0
16	17814	178.3	0
16	17814	178.4	0
16	17814	178.5	0
16	17814	178.6	0
16	17814	178.7	0
16	17814	178.8	0
16	17814	178.9	0
16	17814	179	0
16	17814	179.1	0
16	17814	179.2	0
16	17814	179.3	0
16	17814	179.4	0
16	17814	179.5	0
16	17814	179.6	0
16	17814	179.7	0
16	17814	179.8	0
16	17814	179.9	0
16	17814	180	0
16	17814	180.1	0
16	17814	180.2	0
16	17814	180.3	0
16	17814	180.4	0
16	17814	180.5	0
16	17814	180.6	0
16	17814	180.7	0
16	17814	180.8	0
16	17814	180.9	0
16	17814	181	0
16	17814	181.1	0
16	17814	181.2	0
16	17814	181.3	0
16	17814	181.4	0
16	17814	181.5	0
16	17814	181.6	0
16	17814	181.7	0
16	17814	181.8	0
16	17814	181.9	0
16	17814	182	0
16	17814	182.1	0
16	17814	182.2	0
16	17814	182.3	0
16	17814	182.4	0
16	17814	182.5	0
16	17814	182.6	0
16	17814	182.7	0
16	17814	182.8	0
16	17814	182.9	0
16	17814	183	0
16	17814	183.1	0
16	17814	183.2	0
16	17814	183.3	0
16	17814	183.4	0
16	17814	183.5	0
16	17814	183.6	0
16	17814	183.7	0
16	17814	183.8	0
16	17814	183.9	0
16	17814	184	0
16	17814	184.1	0
16	17814	184.2	0
16	17814	184.3	0
16	17814	184.4	0
16	17814	184.5	0
16	17814	184.6	0
16	17814	184.7	0
16	17814	184.8	0
16	17814	184.9	0
16	17814	185	0
16	17814	185.1	0
16	17814	185.2	0
16	17814	185.3	0
16	17814	185.4	0
16	17814	185.5	0
16	17814	185.6	0
16	17814	185.7	0
16	17814	185.8	0
16	17814	185.9	0
16	17814	186	0
16	17814	186.1	0
16	17814	186.2	0
16	17814	186.3	0
16	17814	186.4	0
16	17814	186.5	0
16	17814	186.6	0
16	17814	186.7	0
16	17814	186.8	0
16	17814	186.9	0
16	17814	187	0
16	17814	187.1	0
16	17814	187.2	0
16	17814	187.3	0
16	17814	187.4	0
16	17814	187.5	0
16	17814	187.6	0
16	17814	187.7	0
16	17814	187.8	0
16	17814	187.9	0
16	17814	188	0
16	17814	188.1	0
16	17814	188.2	0
16	17814	188.3	0
16	17814	188.4	0
16	17814	188.5	0
16	17814	188.6	0
16	17814	188.7	0
16	17814	188.8	0
16	17814	188.9	0
16	17814	189	0
16	17814	189.1	0
16	17814	189.2	0
16	17814	189.3	0
16	17814	189.4	0
16	17814	189.5	0
16	17814	189.6	0
16	17814	189.7	0
16	17814	189.8	0
16	17814	189.9	0
16	17814	190	0
16	17814	190.1	0
16	17814	190.2	0
16	17814	190.3	0
16	17814	190.4	0
16	17814	190.5	0
16	17814	190.6	0
16	17814	190.7	0
16	17814	190.8	0
16	17814	190.9	0
16	17814	191	0
16	17814	191.1	0
16	17814	191.2	0
16	17814	191.3	0
16	17814	191.4	0
16	17814	191.5	0
16	17814	191.6	0
16	17814	191.7	0
16	17814	191.8	0
16	17814	191.9	0
16	17814	192	0
16	17814	192.1	0
16	17814	192.2	0
16	17814	192.3	0
16	17814	192.4	0
16	17814	192.5	0
16	17814	192.6	0
16	17814	192.7	0
16	17814	192.8	0
16	17814	192.9	0
16	17814	193	0
16	17814	193.1	0
16	17814	193.2	0
16	17814	193.3	0
16	17814	193.4	0
16	17814	193.5	0
16	17814	193.6	0
16	17814	193.7	0
16	17814	193.8	0
16	17814	193.9	0
16	17814	194	0
16	17814	194.1	0
16	17814	194.2	0
16	17814	194.3	0
16	17814	194.4	0
16	17814	194.5	0
16	17814	194.6	0
16	17814	194.7	0
16	17814	194.8	0
16	17814	194.9	0
16	17814	195	0
16	17814	195.1	0
16	17814	195.2	0
16	17814	195.3	0
16	17814	195.4	0
16	17814	195.5	0
16	17814	195.6	0
16	17814	195.7	0
16	17814	195.8	0
16	17814	195.9	0
16	17814	196	0
16	17814	196.1	0
16	17814	196.2	0
16	17814	196.3	0
16	17814	196.4	0
16	17814	196.5	0
16	17814	196.6	0
16	17814	196.7	0
16	17814	196.8	0
16	17814	196.9	0
16	17814	197	0
16	17814	197.1	0
16	17814	197.2	0
16	17814	197.3	0
16	17814	197.4	0
16	17814	197.5	0
16	17814	197.6	0
16	17814	197.7	0
16	17814	197.8	0
16	17814	197.9	0
16	17814	198	0
16	17814	198.1	0
16	17814	198.2	0
16	17814	198.3	0
16	17814	198.4	0
16	17814	198.5	0
16	17814	198.6	0
16	17814	198.7	0
16	17814	198.8	0
16	17814	198.9	0
16	17814	199	0
16	17814	199.1	0
16	17814	199.2	0
16	17814	199.3	0
16	17814	199.4	0
16	17814	199.5	0
16	17814	199.6	0
16	17814	199.7	0
16	17814	199.8	0
16	17814	199.9	0
16	17814	200	0
16	17814	200.1	0
16	17814	200.2	0
16	17814	200.3	0
16	17814	200.4	0
16	17814	200.5	0
16	17814	200.6	0
16	17814	200.7	0
16	17814	200.8	0
16	17814	200.9	0
16	17814	201	0
16	17814	201.1	0
16	17814	201.2	0
16	17814	201.3	0
16	17814	201.4	0
16	17814	201.5	0
16	17814	201.6	0
16	17814	201.7	0
16	17814	201.8	0
16	17814	201.9	0
16	17814	202	0
16	17814	202.1	0
16	17814	202.2	0
16	17814	202.3	0
16	17814	202.4	0
16	17814	202.5	0
16	17814	202.6	0
16	17814	202.7	0
16	17814	202.8	0
16	17814	202.9	0
16	17814	203	0
16	17814	203.1	0
16	17814	203.2	0
16	17814	203.3	0
16	17814	203.4	0
16	17814	203.5	0
16	17814	203.6	0
16	17814	203.7	0
16	17814	203.8	0
16	17814	203.9	0
16	17814	204	0
16	17814	204.1	0
16	17814	204.2	0
16	17814	204.3	0
16	17814	204.4	0
16	17814	204.5	0
16	17814	204.6	0
16	17814	204.7	0
16	17814	204.8	0
16	17814	204.9	0
16	17814	205	0
16	17814	205.1	0
16	17814	205.2	0
16	17814	205.3	0
16	17814	205.4	0
16	17814	205.5	0
16	17814	205.6	0
16	17814	205.7	0
16	17814	205.8	0
16	17814	205.9	0
16	17814	206	0
16	17814	206.1	0
16	17814	206.2	0
16	17814	206.3	0
16	17814	206.4	0
16	17814	206.5	0
16	17814	206.6	0
16	17814	206.7	0
16	17814	206.8	0
16	17814	206.9	0
16	17814	207	0
16	17814	207.1	0
16	17814	207.2	0
16	17814	207.3	0
16	17814	207.4	0
16	17814	207.5	0
16	17814	207.6	0
16	17814	207.7	0
16	17814	207.8	0
16	17814	207.9	0
16	17814	208	0
16	17814	208.1	0
16	17814	208.2	0
16	17814	208.3	0
16	17814	208.4	0
16	17814	208.5	0
16	17814	208.6	0
16	17814	208.7	0
16	17814	208.8	0
16	17814	208.9	0
16	17814	209	0
16	17814	209.1	0
16	17814	209.2	0
16	17814	209.3	0
16	17814	209.4	0
16	17814	209.5	0
16	17814	209.6	0
16	17814	209.7	0
16	17814	209.8	0
16	17814	209.9	0
16	17814	210	0
16	17814	210.1	0
16	17814	210.2	0
16	17814	210.3	0
16	17814	210.4	0
16	17814	210.5	0
16	17814	210.6	0
16	17814	210.7	0
16	17814	210.8	0
16	17814	210.9	0
16	17814	211	0
16	17814	211.1	0
16	17814	211.2	0
16	17814	211.3	0
16	17814	211.4	0
16	17814	211.5	0
16	17814	211.6	0
16	17814	211.7	0
16	17814	211.8	0
16	17814	211.9	0
16	17814	212	0
16	17814	212.1	0
16	17814	212.2	0
16	17814	212.3	0
16	17814	212.4	0
16	17814	212.5	0
16	17814	212.6	0
16	17814	212.7	0
16	17814	212.8	0
16	17814	212.9	0
16	17814	213	0
16	17814	213.1	0
16	17814	213.2	0
16	17814	213.3	0
16	17814	213.4	0
16	17814	213.5	0
16	17814	213.6	0
16	17814	213.7	0
16	17814	213.8	0
16	17814	213.9	0
16	17814	214	0
16	17814	214.1	0
16	17814	214.2	0
16	17814	214.3	0
16	17814	214.4	0
16	17814	214.5	0
16	17814	214.6	0
16	17814	214.7	0
16	17814	214.8	0
16	17814	214.9	0
16	17814	215	0
16	17814	215.1	0
16	17814	215.2	0
16	17814	215.3	0
16	17814	215.4	0
16	17814	215.5	0
16	17814	215.6	0
16	17814	215.7	0
16	17814	215.8	0
16	17814	215.9	0
16	17814	216	0
16	17814	216.1	0
16	17814	216.2	0
16	17814	216.3	0
16	17814	216.4	0
16	17814	216.5	0
16	17814	216.6	0
16	17814	216.7	0
16	17814	216.8	0
16	17814	216.9	0
16	17814	217	0
16	17814	217.1	0
16	17814	217.2	0
16	17814	217.3	0
16	17814	217.4	0
16	17814	217.5	0
16	17814	217.6	0
16	17814	217.7	0
16	17814	217.8	0
16	17814	217.9	0
16	17814	218	0
16	17814	218.1	0
16	17814	218.2	0
16	17814	218.3	0
16	17814	218.4	0
16	17814	218.5	0
16	17814	218.6	0
16	17814	218.7	0
16	17814	218.8	0
16	17814	218.9	0
16	17814	219	0
16	17814	219.1	0
16	17814	219.2	0
16	17814	219.3	0
16	17814	219.4	0
16	17814	219.5	0
16	17814	219.6	0
16	17814	219.7	0
16	17814	219.8	0
16	17814	219.9	0
16	17814	220	0
16	17814	220.1	0
16	17814	220.2	0
16	17814	220.3	0
16	17814	220.4	0
16	17814	220.5	0
16	17814	220.6	0
16	17814	220.7	0
16	17814	220.8	0
16	17814	220.9	0
16	17814	221	0
16	17814	221.1	0
16	17814	221.2	0
16	17814	221.3	0
16	17814	221.4	0
16	17814	221.5	0
16	17814	221.6	0
16	17814	221.7	0
16	17814	221.8	0
16	17814	221.9	0
16	17814	222	0
16	17814	222.1	0
16	17814	222.2	0
16	17814	222.3	0
16	17814	222.4	0
16	17814	222.5	0
16	17814	222.6	0
16	17814	222.7	0
16	17814	222.8	0
16	17814	222.9	0
16	17814	223	0
16	17814	223.1	0
16	17814	223.2	0
16	17814	223.3	0
16	17814	223.4	0
16	17814	223.5	0
16	17814	223.6	0
16	17814	223.7	0
16	17814	223.8	0
16	17814	223.9	0
16	17814	224	0
16	17814	224.1	0
16	17814	224.2	0
16	17814	224.3	0
16	17814	224.4	0
16	17814	224.5	0
16	17814	224.6	0
16	17814	224.7	0
16	17814	224.8	0
16	17814	224.9	0
16	17814	225	0
16	17814	225.1	0
16	17814	225.2	0
16	17814	225.3	0
16	17814	225.4	0
16	17814	225.5	0
16	17814	225.6	0
16	17814	225.7	0
16	17814	225.8	0
16	17814	225.9	0
16	17814	226	0
16	17814	226.1	0
16	17814	226.2	0
16	17814	226.3	0
16	17814	226.4	0
16	17814	226.5	0
16	17814	226.6	0
16	17814	226.7	0
16	17814	226.8	0
16	17814	226.9	0
16	17814	227	0
16	17814	227.1	0
16	17814	227.2	0
16	17814	227.3	0
16	17814	227.4	0
16	17814	227.5	0
16	17814	227.6	0
16	17814	227.7	0
16	17814	227.8	0
16	17814	227.9	0
16	17814	228	0
16	17814	228.1	0
16	17814	228.2	0
16	17814	228.3	0
16	17814	228.4	0
16	17814	228.5	0
16	17814	228.6	0
16	17814	228.7	0
16	17814	228.8	0
16	17814	228.9	0
16	17814	229	0
16	17814	229.1	0
16	17814	229.2	0
16	17814	229.3	0
16	17814	229.4	0
16	17814	229.5	0
16	17814	229.6	0
16	17814	229.7	0
16	17814	229.8	0
16	17814	229.9	0
16	17814	230	0
16	17814	230.1	0
16	17814	230.2	0
16	17814	230.3	0
16	17814	230.4	0
16	17814	230.5	0
16	17814	230.6	0
16	17814	230.7	0
16	17814	230.8	0
16	17814	230.9	0
16	17814	231	0
16	17814	231.1	0
16	17814	231.2	0
16	17814	231.3	0
16	17814	231.4	0
16	17814	231.5	0
16	17814	231.6	0
16	17814	231.7	0
16	17814	231.8	0
16	17814	231.9	0
16	17814	232	0
16	17814	232.1	0
16	17814	232.2	0
16	17814	232.3	0
16	17814	232.4	0
16	17814	232.5	0
16	17814	232.6	0
16	17814	232.7	0
16	17814	232.8	0
16	17814	232.9	0
16	17814	233	0
16	17814	233.1	0
16	17814	233.2	0
16	17814	233.3	0
16	17814	233.4	0
16	17814	233.5	0
16	17814	233.6	0
16	17814	233.7	0
16	17814	233.8	0
16	17814	233.9	0
16	17814	234	0
16	17814	234.1	0
16	17814	234.2	0
16	17814	234.3	0
16	17814	234.4	0
16	17814	234.5	0
16	17814	234.6	0
16	17814	234.7	0
16	17814	234.8	0
16	17814	234.9	0
16	17814	235	0
16	17814	235.1	0
16	17814	235.2	0
16	17814	235.3	0
16	17814	235.4	0
16	17814	235.5	0
16	17814	235.6	0
16	17814	235.7	0
16	17814	235.8	0
16	17814	235.9	0
16	17814	236	0
16	17814	236.1	0
16	17814	236.2	0
16	17814	236.3	0
16	17814	236.4	0
16	17814	236.5	0
16	17814	236.6	0
16	17814	236.7	0
16	17814	236.8	0
16	17814	236.9	0
16	17814	237	0
16	17814	237.1	0
16	17814	237.2	0
16	17814	237.3	0
16	17814	237.4	0
16	17814	237.5	0
16	17814	237.6	0
16	17814	237.7	0
16	17814	237.8	0
16	17814	237.9	0
16	17814	238	0
16	17814	238.1	0
16	17814	238.2	0
16	17814	238.3	0
16	17814	238.4	0
16	17814	238.5	0
16	17814	238.6	0
16	17814	238.7	0
16	17814	238.8	0
16	17814	238.9	0
16	17814	239	0
16	17814	239.1	0
16	17814	239.2	0
16	17814	239.3	0
16	17814	239.4	0
16	17814	239.5	0
16	17814	239.6	0
16	17814	239.7	0
16	17814	239.8	0
16	17814	239.9	0
16	17814	240	0
16	17814	240.1	0
16	17814	240.2	0
16	17814	240.3	0
16	17814	240.4	0
16	17814	240.5	0
16	17814	240.6	0
16	17814	240.7	0
16	17814	240.8	0
16	17814	240.9	0
16	17814	241	0
16	17814	241.1	0
16	17814	241.2	0
16	17814	241.3	0
16	17814	241.4	0
16	17814	241.5	0
16	17814	241.6	0
16	17814	241.7	0
16	17814	241.8	0
16	17814	241.9	0
16	17814	242	0
16	17814	242.1	0
16	17814	242.2	0
16	17814	242.3	0
16	17814	242.4	0
16	17814	242.5	0
16	17814	242.6	0
16	17814	242.7	0
16	17814	242.8	0
16	17814	242.9	0
16	17814	243	0
16	17814	243.1	0
16	17814	243.2	0
16	17814	243.3	0
16	17814	243.4	0
16	17814	243.5	0
16	17814	243.6	0
16	17814	243.7	0
16	17814	243.8	0
16	17814	243.9	0
16	17814	244	0
16	17814	244.1	0
16	17814	244.2	0
16	17814	244.3	0
16	17814	244.4	0
16	17814	244.5	0
16	17814	244.6	0
16	17814	244.7	0
16	17814	244.8	0
16	17814	244.9	0
16	17814	245	0
16	17814	245.1	0
16	17814	245.2	0
16	17814	245.3	0
16	17814	245.4	0
16	17814	245.5	0
16	17814	245.6	0
16	17814	245.7	0
16	17814	245.8	0
16	17814	245.9	0
16	17814	246	0
16	17814	246.1	0
16	17814	246.2	0
16	17814	246.3	0
16	17814	246.4	0
16	17814	246.5	0
16	17814	246.6	0
16	17814	246.7	0
16	17814	246.8	0
16	17814	246.9	0
16	17814	247	0
16	17814	247.1	0
16	17814	247.2	0
16	17814	247.3	0
16	17814	247.4	0
16	17814	247.5	0
16	17814	247.6	0
16	17814	247.7	0
16	17814	247.8	0
16	17814	247.9	0
16	17814	248	0
16	17814	248.1	0
16	17814	248.2	0
16	17814	248.3	0
16	17814	248.4	0
16	17814	248.5	0
16	17814	248.6	0
16	17814	248.7	0
16	17814	248.8	0
16	17814	248.9	0
16	17814	249	0
16	17814	249.1	0
16	17814	249.2	0
16	17814	249.3	0
16	17814	249.4	0
16	17814	249.5	0
16	17814	249.6	0
16	17814	249.7	0
16	17814	249.8	0
16	17814	249.9	0
16	17814	250	0
16	17814	250.1	0
16	17814	250.2	0
16	17814	250.3	0
16	17814	250.4	0
16	17814	250.5	0
16	17814	250.6	0
16	17814	250.7	0
16	17814	250.8	0
16	17814	250.9	0
16	17814	251	0
16	17814	251.1	0
16	17814	251.2	0
16	17814	251.3	0
16	17814	251.4	0
16	17814	251.5	0
16	17814	251.6	0
16	17814	251.7	0
16	17814	251.8	0
16	17814	251.9	0
16	17814	252	0
16	17814	252.1	0
16	17814	252.2	0
16	17814	252.3	0
16	17814	252.4	0
16	17814	252.5	0
16	17814	252.6	0
16	17814	252.7	0
16	17814	252.8	0
16	17814	252.9	0
16	17814	253	0
16	17814	253.1	0
16	17814	253.2	0
16	17814	253.3	0
16	17814	253.4	0
16	17814	253.5	0
16	17814	253.6	0
16	17814	253.7	0
16	17814	253.8	0
16	17814	253.9	0
16	17814	254	0
16	17814	254.1	0
16	17814	254.2	0
16	17814	254.3	0
16	17814	254.4	0
16	17814	254.5	0
16	17814	254.6	0
16	17814	254.7	0
16	17814	254.8	0
16	17814	254.9	0
16	17814	255	0
16	17814	255.1	0
16	17814	255.2	0
16	17814	255.3	0
16	17814	255.4	0
16	17814	255.5	0
16	17814	255.6	0
16	17814	255.7	0
16	17814	255.8	0
16	17814	255.9	0
16	17814	256	0
16	17814	256.1	0
16	17814	256.2	0
16	17814	256.3	0
16	17814	256.4	0
16	17814	256.5	0
16	17814	256.6	0
16	17814	256.7	0
16	17814	256.8	0
16	17814	256.9	0
16	17814	257	0
16	17814	257.1	0
16	17814	257.2	0
16	17814	257.3	0
16	17814	257.4	0
16	17814	257.5	0
16	17814	257.6	0
16	17814	257.7	0
16	17814	257.8	0
16	17814	257.9	0
16	17814	258	0
16	17814	258.1	0
16	17814	258.2	0
16	17814	258.3	0
16	17814	258.4	0
16	17814	258.5	0
16	17814	258.6	0
16	17814	258.7	0
16	17814	258.8	0
16	17814	258.9	0
16	17814	259	0
16	17814	259.1	0
16	17814	259.2	0
16	17814	259.3	0
16	17814	259.4	0
16	17814	259.5	0
16	17814	259.6	0
16	17814	259.7	0
16	17814	259.8	0
16	17814	259.9	0
16	17814	260	0
16	17814	260.1	0
16	17814	260.2	0
16	17814	260.3	0
16	17814	260.4	0
16	17814	260.5	0
16	17814	260.6	0
16	17814	260.7	0
16	17814	260.8	0
16	17814	260.9	0
16	17814	261	0
16	17814	261.1	0
16	17814	261.2	0
16	17814	261.3	0
16	17814	261.4	0
16	17814	261.5	0
16	17814	261.6	0
16	17814	261.7	0
16	17814	261.8	0
16	17814	261.9	0
16	17814	262	0
16	17814	262.1	0
16	17814	262.2	0
16	17814	262.3	0
16	17814	262.4	0
16	17814	262.5	0
16	17814	262.6	0
16	17814	262.7	0
16	17814	262.8	0
16	17814	262.9	0
16	17814	263	0
16	17814	263.1	0
16	17814	263.2	0
16	17814	263.3	0
16	17814	263.4	0
16	17814	263.5	0
16	17814	263.6	0
16	17814	263.7	0
16	17814	263.8	0
16	17814	263.9	0
16	17814	264	0
16	17814	264.1	0
16	17814	264.2	0
16	17814	264.3	0
16	17814	264.4	0
16	17814	264.5	0
16	17814	264.6	0
16	17814	264.7	0
16	17814	264.8	0
16	17814	264.9	0
16	17814	265	0
16	17814	265.1	0
16	17814	265.2	0
16	17814	265.3	0
16	17814	265.4	0
16	17814	265.5	0
16	17814	265.6	0
16	17814	265.7	0
16	17814	265.8	0
16	17814	265.9	0
16	17814	266	0
16	17814	266.1	0
16	17814	266.2	0
16	17814	266.3	0
16	17814	266.4	0
16	17814	266.5	0
16	17814	266.6	0
16	17814	266.7	0
16	17814	266.8	0
16	17814	266.9	0
16	17814	267	0
16	17814	267.1	0
16	17814	267.2	0
16	17814	267.3	0
16	17814	267.4	0
16	17814	267.5	0
16	17814	267.6	0
16	17814	267.7	0
16	17814	267.8	0
16	17814	267.9	0
16	17814	268	0
16	17814	268.1	0
16	17814	268.2	0
16	17814	268.3	0
16	17814	268.4	0
16	17814	268.5	0
16	17814	268.6	0
16	17814	268.7	0
16	17814	268.8	0
16	17814	268.9	0
16	17814	269	0
16	17814	269.1	0
16	17814	269.2	0
16	17814	269.3	0
16	17814	269.4	0
16	17814	269.5	0
16	17814	269.6	0
16	17814	269.7	0
16	17814	269.8	0
16	17814	269.9	0
16	17814	270	0
16	17814	270.1	0
16	17814	270.2	0
16	17814	270.3	0
16	17814	270.4	0
16	17814	270.5	0
16	17814	270.6	0
16	17814	270.7	0
16	17814	270.8	0
16	17814	270.9	0
16	17814	271	0
16	17814	271.1	0
16	17814	271.2	0
16	17814	271.3	0
16	17814	271.4	0
16	17814	271.5	0
16	17814	271.6	0
16	17814	271.7	0
16	17814	271.8	0
16	17814	271.9	0
16	17814	272	0
16	17814	272.1	0
16	17814	272.2	0
16	17814	272.3	0
16	17814	272.4	0
16	17814	272.5	0
16	17814	272.6	0
16	17814	272.7	0
16	17814	272.8	0
16	17814	272.9	0
16	17814	273	0
16	17814	273.1	0
16	17814	273.2	0
16	17814	273.3	0
16	17814	273.4	0
16	17814	273.5	0
16	17814	273.6	0
16	17814	273.7	0
16	17814	273.8	0
16	17814	273.9	0
16	17814	274	0
16	17814	274.1	0
16	17814	274.2	0
16	17814	274.3	0
16	17814	274.4	0
16	17814	274.5	0
16	17814	274.6	0
16	17814	274.7	0
16	17814	274.8	0
16	17814	274.9	0
16	17814	275	0
16	17814	275.1	0
16	17814	275.2	0
16	17814	275.3	0
16	17814	275.4	0
16	17814	275.5	0
16	17814	275.6	0
16	17814	275.7	0
16	17814	275.8	0
16	17814	275.9	0
16	17814	276	0
16	17814	276.1	0
16	17814	276.2	0
16	17814	276.3	0
16	17814	276.4	0
16	17814	276.5	0
16	17814	276.6	0
16	17814	276.7	0
16	17814	276.8	0
16	17814	276.9	0
16	17814	277	0
16	17814	277.1	0
16	17814	277.2	0
16	17814	277.3	0
16	17814	277.4	0
16	17814	277.5	0
16	17814	277.6	0
16	17814	277.7	0
16	17814	277.8	0
16	17814	277.9	0
16	17814	278	0
16	17814	278.1	0
16	17814	278.2	0
16	17814	278.3	0
16	17814	278.4	0
16	17814	278.5	0
16	17814	278.6	0
16	17814	278.7	0
16	17814	278.8	0
16	17814	278.9	0
16	17814	279	0
16	17814	279.1	0
16	17814	279.2	0
16	17814	279.3	0
16	17814	279.4	0
16	17814	279.5	0
16	17814	279.6	0
16	17814	279.7	0
16	17814	279.8	0
16	17814	279.9	0
16	17814	280	0
16	17814	280.1	0
16	17814	280.2	0
16	17814	280.3	0
16	17814	280.4	0
16	17814	280.5	0
16	17814	280.6	0
16	17814	280.7	0
16	17814	280.8	0
16	17814	280.9	0
16	17814	281	0
16	17814	281.1	0
16	17814	281.2	0
16	17814	281.3	0
16	17814	281.4	0
16	17814	281.5	0
16	17814	281.6	0
16	17814	281.7	0
16	17814	281.8	0
16	17814	281.9	0
16	17814	282	0
16	17814	282.1	0
16	17814	282.2	0
16	17814	282.3	0
16	17814	282.4	0
16	17814	282.5	0
16	17814	282.6	0
16	17814	282.7	0
16	17814	282.8	0
16	17814	282.9	0
16	17814	283	0
16	17814	283.1	0
16	17814	283.2	0
16	17814	283.3	0
16	17814	283.4	0
16	17814	283.5	0
16	17814	283.6	0
16	17814	283.7	0
16	17814	283.8	0
16	17814	283.9	0
16	17814	284	0
16	17814	284.1	0
16	17814	284.2	0
16	17814	284.3	0
16	17814	284.4	0
16	17814	284.5	0
16	17814	284.6	0
16	17814	284.7	0
16	17814	284.8	0
16	17814	284.9	0
16	17814	285	0
16	17814	285.1	0
16	17814	285.2	0
16	17814	285.3	0
16	17814	285.4	0
16	17814	285.5	0
16	17814	285.6	0
16	17814	285.7	0
16	17814	285.8	0
16	17814	285.9	0
16	17814	286	0
16	17814	286.1	0
16	17814	286.2	0
16	17814	286.3	0
16	17814	286.4	0
16	17814	286.5	0
16	17814	286.6	0
16	17814	286.7	0
16	17814	286.8	0
16	17814	286.9	0
16	17814	287	0
16	17814	287.1	0
16	17814	287.2	0
16	17814	287.3	0
16	17814	287.4	0
16	17814	287.5	0
16	17814	287.6	0
16	17814	287.7	0
16	17814	287.8	0
16	17814	287.9	0
16	17814	288	0
16	17814	288.1	0
16	17814	288.2	0
16	17814	288.3	0
16	17814	288.4	0
16	17814	288.5	0
16	17814	288.6	0
16	17814	288.7	0
16	17814	288.8	0
16	17814	288.9	0
16	17814	289	0
16	17814	289.1	0
16	17814	289.2	0
16	17814	289.3	0
16	17814	289.4	0
16	17814	289.5	0
16	17814	289.6	0
16	17814	289.7	0
16	17814	289.8	0
16	17814	289.9	0
16	17814	290	0
16	17814	290.1	0
16	17814	290.2	0
16	17814	290.3	0
16	17814	290.4	0
16	17814	290.5	0
16	17814	290.6	0
16	17814	290.7	0
16	17814	290.8	0
16	17814	290.9	0
16	17814	291	0
16	17814	291.1	0
16	17814	291.2	0
16	17814	291.3	0
16	17814	291.4	0
16	17814	291.5	0
16	17814	291.6	0
16	17814	291.7	0
16	17814	291.8	0
16	17814	291.9	0
16	17814	292	0
16	17814	292.1	0
16	17814	292.2	0
16	17814	292.3	0
16	17814	292.4	0
16	17814	292.5	0
16	17814	292.6	0
16	17814	292.7	0
16	17814	292.8	0
16	17814	292.9	0
16	17814	293	0
16	17814	293.1	0
16	17814	293.2	0
16	17814	293.3	0
16	17814	293.4	0
16	17814	293.5	0
16	17814	293.6	0
16	17814	293.7	0
16	17814	293.8	0
16	17814	293.9	0
16	17814	294	0
16	17814	294.1	0
16	17814	294.2	0
16	17814	294.3	0
16	17814	294.4	0
16	17814	294.5	0
16	17814	294.6	0
16	17814	294.7	0
16	17814	294.8	0
16	17814	294.9	0
16	17814	295	0
16	17814	295.1	0
16	17814	295.2	0
16	17814	295.3	0
16	17814	295.4	0
16	17814	295.5	0
16	17814	295.6	0
16	17814	295.7	0
16	17814	295.8	0
16	17814	295.9	0
16	17814	296	0
16	17814	296.1	0
16	17814	296.2	0
16	17814	296.3	0
16	17814	296.4	0
16	17814	296.5	0
16	17814	296.6	0
16	17814	296.7	0
16	17814	296.8	0
16	17814	296.9	0
16	17814	297	0
16	17814	297.1	0
16	17814	297.2	0
16	17814	297.3	0
16	17814	297.4	0
16	17814	297.5	0
16	17814	297.6	0
16	17814	297.7	0
16	17814	297.8	0
16	17814	297.9	0
16	17814	298	0
16	17814	298.1	0
16	17814	298.2	0
16	17814	298.3	0
16	17814	298.4	0
16	17814	298.5	0
16	17814	298.6	0
16	17814	298.7	0
16	17814	298.8	0
16	17814	298.9	0
16	17814	299	0
16	17814	299.1	0
16	17814	299.2	0
16	17814	299.3	0
16	17814	299.4	0
16	17814	299.5	0
16	17814	299.6	0
16	17814	299.7	0
16	17814	299.8	0
16	17814	299.9	0
16	17814	300	0
16	17814	300.1	0
16	17814	300.2	0
16	17814	300.3	0
16	17814	300.4	0
16	17814	300.5	0
16	17814	300.6	0
16	17814	300.7	0
16	17814	300.8	0
16	17814	300.9	0
16	17814	301	0
16	17814	301.1	0
16	17814	301.2	0
16	17814	301.3	0
16	17814	301.4	0
16	17814	301.5	0
16	17814	301.6	0
16	17814	301.7	0
16	17814	301.8	0
16	17814	301.9	0
16	17814	302	0
16	17814	302.1	0
16	17814	302.2	0
16	17814	302.3	0
16	17814	302.4	0
16	17814	302.5	0
16	17814	302.6	0
16	17814	302.7	0
16	17814	302.8	0
16	17814	302.9	0
16	17814	303	0
16	17814	303.1	0
16	17814	303.2	0
16	17814	303.3	0
16	17814	303.4	0
16	17814	303.5	0
16	17814	303.6	0
16	17814	303.7	0
16	17814	303.8	0
16	17814	303.9	0
16	17814	304	0
16	17814	304.1	0
16	17814	304.2	0
16	17814	304.3	0
16	17814	304.4	0
16	17814	304.5	0
16	17814	304.6	0
16	17814	304.7	0
16	17814	304.8	0
16	17814	304.9	0
16	17814	305	0
16	17814	305.1	0
16	17814	305.2	0
16	17814	305.3	0
16	17814	305.4	0
16	17814	305.5	0
16	17814	305.6	0
16	17814	305.7	0
16	17814	305.8	0
16	17814	305.9	0
16	17814	306	0
16	17814	306.1	0
16	17814	306.2	0
16	17814	306.3	0
16	17814	306.4	0
16	17814	306.5	0
16	17814	306.6	0
16	17814	306.7	0
16	17814	306.8	0
16	17814	306.9	0
16	17814	307	0
16	17814	307.1	0
16	17814	307.2	0
16	17814	307.3	0
16	17814	307.4	0
16	17814	307.5	0
16	17814	307.6	0
16	17814	307.7	0
16	17814	307.8	0
16	17814	307.9	0
16	17814	308	0
16	17814	308.1	0
16	17814	308.2	0
16	17814	308.3	0
16	17814	308.4	0
16	17814	308.5	0
16	17814	308.6	0
16	17814	308.7	0
16	17814	308.8	0
16	17814	308.9	0
16	17814	309	0
16	17814	309.1	0
16	17814	309.2	0
16	17814	309.3	0
16	17814	309.4	0
16	17814	309.5	0
16	17814	309.6	0
16	17814	309.7	0
16	17814	309.8	0
16	17814	309.9	0
16	17814	310	0
16	17814	310.1	0
16	17814	310.2	0
16	17814	310.3	0
16	17814	310.4	0
16	17814	310.5	0
16	17814	310.6	0
16	17814	310.7	0
16	17814	310.8	0
16	17814	310.9	0
16	17814	311	0
16	17814	311.1	0
16	17814	311.2	0
16	17814	311.3	0
16	17814	311.4	0
16	17814	311.5	0
16	17814	311.6	0
16	17814	311.7	0
16	17814	311.8	0
16	17814	311.9	0
16	17814	312	0
16	17814	312.1	0
16	17814	312.2	0
16	17814	312.3	0
16	17814	312.4	0
16	17814	312.5	0
16	17814	312.6	0
16	17814	312.7	0
16	17814	312.8	0
16	17814	312.9	0
16	17814	313	0
16	17814	313.1	0
16	17814	313.2	0
16	17814	313.3	0
16	17814	313.4	0
16	17814	313.5	0
16	17814	313.6	0
16	17814	313.7	0
16	17814	313.8	0
16	17814	313.9	0
16	17814	314	0
16	17814	314.1	0
16	17814	314.2	0
16	17814	314.3	0
16	17814	314.4	0
16	17814	314.5	0
16	17814	314.6	0
16	17814	314.7	0
16	17814	314.8	0
16	17814	314.9	0
16	17814	315	0
16	17814	315.1	0
16	17814	315.2	0
16	17814	315.3	0
16	17814	315.4	0
16	17814	315.5	0
16	17814	315.6	0
16	17814	315.7	0
16	17814	315.8	0
16	17814	315.9	0
16	17814	316	0
16	17814	316.1	0
16	17814	316.2	0
16	17814	316.3	0
16	17814	316.4	0
16	17814	316.5	0
16	17814	316.6	0
16	17814	316.7	0
16	17814	316.8	0
16	17814	316.9	0
16	17814	317	0
16	17814	317.1	0
16	17814	317.2	0
16	17814	317.3	0
16	17814	317.4	0
16	17814	317.5	0
16	17814	317.6	0
16	17814	317.7	0
16	17814	317.8	0
16	17814	317.9	0
16	17814	318	0
16	17814	318.1	0
16	17814	318.2	0
16	17814	318.3	0
16	17814	318.4	0
16	17814	318.5	0
16	17814	318.6	0
16	17814	318.7	0
16	17814	318.8	0
16	17814	318.9	0
16	17814	319	0
16	17814	319.1	0
16	17814	319.2	0
16	17814	319.3	0
16	17814	319.4	0
16	17814	319.5	0
16	17814	319.6	0
16	17814	319.7	0
16	17814	319.8	0
16	17814	319.9	0
16	17814	320	0
16	17814	320.1	0
16	17814	320.2	0
16	17814	320.3	0
16	17814	320.4	0
16	17814	320.5	0
16	17814	320.6	0
16	17814	320.7	0
16	17814	320.8	0
16	17814	320.9	0
16	17814	321	0
16	17814	321.1	0
16	17814	321.2	0
16	17814	321.3	0
16	17814	321.4	0
16	17814	321.5	0
16	17814	321.6	0
16	17814	321.7	0
16	17814	321.8	0
16	17814	321.9	0
16	17814	322	0
16	17814	322.1	0
16	17814	322.2	0
16	17814	322.3	0
16	17814	322.4	0
16	17814	322.5	0
16	17814	322.6	0
16	17814	322.7	0
16	17814	322.8	0
16	17814	322.9	0
16	17814	323	0
16	17814	323.1	0
16	17814	323.2	0
16	17814	323.3	0
16	17814	323.4	0
16	17814	323.5	0
16	17814	323.6	0
16	17814	323.7	0
16	17814	323.8	0
16	17814	323.9	0
16	17814	324	0
16	17814	324.1	0
16	17814	324.2	0
16	17814	324.3	0
16	17814	324.4	0
16	17814	324.5	0
16	17814	324.6	0
16	17814	324.7	0
16	17814	324.8	0
16	17814	324.9	0
16	17814	325	0
16	17814	325.1	0
16	17814	325.2	0
16	17814	325.3	0
16	17814	325.4	0
16	17814	325.5	0
16	17814	325.6	0
16	17814	325.7	0
16	17814	325.8	0
16	17814	325.9	0
16	17814	326	0
16	17814	326.1	0
16	17814	326.2	0
16	17814	326.3	0
16	17814	326.4	0
16	17814	326.5	0
16	17814	326.6	0
16	17814	326.7	0
16	17814	326.8	0
16	17814	326.9	0
16	17814	327	0
16	17814	327.1	0
16	17814	327.2	0
16	17814	327.3	0
16	17814	327.4	0
16	17814	327.5	0
16	17814	327.6	0
16	17814	327.7	0
16	17814	327.8	0
16	17814	327.9	0
16	17814	328	0
16	17814	328.1	0
16	17814	328.2	0
16	17814	328.3	0
16	17814	328.4	0
16	17814	328.5	0
16	17814	328.6	0
16	17814	328.7	0
16	17814	328.8	0
16	17814	328.9	0
16	17814	329	0
16	17814	329.1	0
16	17814	329.2	0
16	17814	329.3	0
16	17814	329.4	0
16	17814	329.5	0
16	17814	329.6	0
16	17814	329.7	0
16	17814	329.8	0
16	17814	329.9	0
16	17814	330	0
16	17814	330.1	0
16	17814	330.2	0
16	17814	330.3	0
16	17814	330.4	0
16	17814	330.5	0
16	17814	330.6	0
16	17814	330.7	0
16	17814	330.8	0
16	17814	330.9	0
16	17814	331	0
16	17814	331.1	0
16	17814	331.2	0
16	17814	331.3	0
16	17814	331.4	0
16	17814	331.5	0
16	17814	331.6	0
16	17814	331.7	0
16	17814	331.8	0
16	17814	331.9	0
16	17814	332	0
16	17814	332.1	0
16	17814	332.2	0
16	17814	332.3	0
16	17814	332.4	0
16	17814	332.5	0
16	17814	332.6	0
16	17814	332.7	0
16	17814	332.8	0
16	17814	332.9	0
16	17814	333	0
16	17814	333.1	0
16	17814	333.2	0
16	17814	333.3	0
16	17814	333.4	0
16	17814	333.5	0
16	17814	333.6	0
16	17814	333.7	0
16	17814	333.8	0
16	17814	333.9	0
16	17814	334	0
16	17814	334.1	0
16	17814	334.2	0
16	17814	334.3	0
16	17814	334.4	0
16	17814	334.5	0
16	17814	334.6	0
16	17814	334.7	0
16	17814	334.8	0
16	17814	334.9	0
16	17814	335	0
16	17814	335.1	0
16	17814	335.2	0
16	17814	335.3	0
16	17814	335.4	0
16	17814	335.5	0
16	17814	335.6	0
16	17814	335.7	0
16	17814	335.8	0
16	17814	335.9	0
16	17814	336	0
16	17814	336.1	0
16	17814	336.2	0
16	17814	336.3	0
16	17814	336.4	0
16	17814	336.5	0
16	17814	336.6	0
16	17814	336.7	0
16	17814	336.8	0
16	17814	336.9	0
16	17814	337	0
16	17814	337.1	0
16	17814	337.2	0
16	17814	337.3	0
16	17814	337.4	0
16	17814	337.5	0
16	17814	337.6	0
16	17814	337.7	0
16	17814	337.8	0
16	17814	337.9	0
16	17814	338	0
16	17814	338.1	0
16	17814	338.2	0
16	17814	338.3	0
16	17814	338.4	0
16	17814	338.5	0
16	17814	338.6	0
16	17814	338.7	0
16	17814	338.8	0
16	17814	338.9	0
16	17814	339	0
16	17814	339.1	0
16	17814	339.2	0
16	17814	339.3	0
16	17814	339.4	0
16	17814	339.5	0
16	17814	339.6	0
16	17814	339.7	0
16	17814	339.8	0
16	17814	339.9	0
16	17814	340	0
16	17814	340.1	0
16	17814	340.2	0
16	17814	340.3	0
16	17814	340.4	0
16	17814	340.5	0
16	17814	340.6	0
16	17814	340.7	0
16	17814	340.8	0
16	17814	340.9	0
16	17814	341	0
16	17814	341.1	0
16	17814	341.2	0
16	17814	341.3	0
16	17814	341.4	0
16	17814	341.5	0
16	17814	341.6	0
16	17814	341.7	0
16	17814	341.8	0
16	17814	341.9	0
16	17814	342	0
16	17814	342.1	0
16	17814	342.2	0
16	17814	342.3	0
16	17814	342.4	0
16	17814	342.5	0
16	17814	342.6	0
16	17814	342.7	0
16	17814	342.8	0
16	17814	342.9	0
16	17814	343	0
16	17814	343.1	0
16	17814	343.2	0
16	17814	343.3	0
16	17814	343.4	0
16	17814	343.5	0
16	17814	343.6	0
16	17814	343.7	0
16	17814	343.8	0
16	17814	343.9	0
16	17814	344	0
16	17814	344.1	0
16	17814	344.2	0
16	17814	344.3	0
16	17814	344.4	0
16	17814	344.5	0
16	17814	344.6	0
16	17814	344.7	0
16	17814	344.8	0
16	17814	344.9	0
16	17814	345	0
16	17814	345.1	0
16	17814	345.2	0
16	17814	345.3	0
16	17814	345.4	0
16	17814	345.5	0
16	17814	345.6	0
16	17814	345.7	0
16	17814	345.8	0
16	17814	345.9	0
16	17814	346	0
16	17814	346.1	0
16	17814	346.2	0
16	17814	346.3	0
16	17814	346.4	0
16	17814	346.5	0
16	17814	346.6	0
16	17814	346.7	0
16	17814	346.8	0
16	17814	346.9	0
16	17814	347	0
16	17814	347.1	0
16	17814	347.2	0
16	17814	347.3	0
16	17814	347.4	0
16	17814	347.5	0
16	17814	347.6	0
16	17814	347.7	0
16	17814	347.8	0
16	17814	347.9	0
16	17814	348	0
16	17814	348.1	0
16	17814	348.2	0
16	17814	348.3	0
16	17814	348.4	0
16	17814	348.5	0
16	17814	348.6	0
16	17814	348.7	0
16	17814	348.8	0
16	17814	348.9	0
16	17814	349	0
16	17814	349.1	0
16	17814	349.2	0
16	17814	349.3	0
16	17814	349.4	0
16	17814	349.5	0
16	17814	349.6	0
16	17814	349.7	0
16	17814	349.8	0
16	17814	349.9	0
16	17814	350	0
16	17814	350.1	0
16	17814	350.2	0
16	17814	350.3	0
16	17814	350.4	0
16	17814	350.5	0
16	17814	350.6	0
16	17814	350.7	0
16	17814	350.8	0
16	17814	350.9	0
16	17814	351	0
16	17814	351.1	0
16	17814	351.2	0
16	17814	351.3	0
16	17814	351.4	0
16	17814	351.5	0
16	17814	351.6	0
16	17814	351.7	0
16	17814	351.8	0
16	17814	351.9	0
16	17814	352	0
16	17814	352.1	0
16	17814	352.2	0
16	17814	352.3	0
16	17814	352.4	0
16	17814	352.5	0
16	17814	352.6	0
16	17814	352.7	0
16	17814	352.8	0
16	17814	352.9	0
16	17814	353	0
16	17814	353.1	0
16	17814	353.2	0
16	17814	353.3	0
16	17814	353.4	0
16	17814	353.5	0
16	17814	353.6	0
16	17814	353.7	0
16	17814	353.8	0
16	17814	353.9	0
16	17814	354	0
16	17814	354.1	0
16	17814	354.2	0
16	17814	354.3	0
16	17814	354.4	0
16	17814	354.5	0
16	17814	354.6	0
16	17814	354.7	0
16	17814	354.8	0
16	17814	354.9	0
16	17814	355	0
16	17814	355.1	0
16	17814	355.2	0
16	17814	355.3	0
16	17814	355.4	0
16	17814	355.5	0
16	17814	355.6	0
16	17814	355.7	0
16	17814	355.8	0
16	17814	355.9	0
16	17814	356	0
16	17814	356.1	0
16	17814	356.2	0
16	17814	356.3	0
16	17814	356.4	0
16	17814	356.5	0
16	17814	356.6	0
16	17814	356.7	0
16	17814	356.8	0
16	17814	356.9	0
16	17814	357	0
16	17814	357.1	0
16	17814	357.2	0
16	17814	357.3	0
16	17814	357.4	0
16	17814	357.5	0
16	17814	357.6	0
16	17814	357.7	0
16	17814	357.8	0
16	17814	357.9	0
16	17814	358	0
16	17814	358.1	0
16	17814	358.2	0
16	17814	358.3	0
16	17814	358.4	0
16	17814	358.5	0
16	17814	358.6	0
16	17814	358.7	0
16	17814	358.8	0
16	17814	358.9	0
16	17814	359	0
16	17814	359.1	0
16	17814	359.2	0
16	17814	359.3	0
16	17814	359.4	0
16	17814	359.5	0
16	17814	359.6	0
16	17814	359.7	0
16	17814	359.8	0
16	17814	359.9	0
16	17814	360	0
16	17814	360.1	0
16	17814	360.2	0
16	17814	360.3	0
16	17814	360.4	0
16	17814	360.5	0
16	17814	360.6	0
16	17814	360.7	0
16	17814	360.8	0
16	17814	360.9	0
16	17814	361	0
16	17814	361.1	0
16	17814	361.2	0
16	17814	361.3	0
16	17814	361.4	0
16	17814	361.5	0
16	17814	361.6	0
16	17814	361.7	0
16	17814	361.8	0
16	17814	361.9	0
16	17814	362	0
16	17814	362.1	0
16	17814	362.2	0
16	17814	362.3	0
16	17814	362.4	0
16	17814	362.5	0
16	17814	362.6	0
16	17814	362.7	0
16	17814	362.8	0
16	17814	362.9	0
16	17814	363	0
16	17814	363.1	0
16	17814	363.2	0
16	17814	363.3	0
16	17814	363.4	0
16	17814	363.5	0
16	17814	363.6	0
16	17814	363.7	0
16	17814	363.8	0
16	17814	363.9	0
16	17814	364	0
16	17814	364.1	0
16	17814	364.2	0
16	17814	364.3	0
16	17814	364.4	0
16	17814	364.5	0
16	17814	364.6	0
16	17814	364.7	0
16	17814	364.8	0
16	17814	364.9	0
16	17814	365	0
16	17814	365.1	0
16	17814	365.2	0
16	17814	365.3	0
16	17814	365.4	0
16	17814	365.5	0
16	17814	365.6	0
16	17814	365.7	0
16	17814	365.8	0
16	17814	365.9	0
16	17814	366	0
16	17814	366.1	0
16	17814	366.2	0
16	17814	366.3	0
16	17814	366.4	0
16	17814	366.5	0
16	17814	366.6	0
16	17814	366.7	0
16	17814	366.8	0
16	17814	366.9	0
16	17814	367	0
16	17814	367.1	0
16	17814	367.2	0
16	17814	367.3	0
16	17814	367.4	0
16	17814	367.5	0
16	17814	367.6	0
16	17814	367.7	0
16	17814	367.8	0
16	17814	367.9	0
16	17814	368	0
16	17814	368.1	0
16	17814	368.2	0
16	17814	368.3	0
16	17814	368.4	0
16	17814	368.5	0
16	17814	368.6	0
16	17814	368.7	0
16	17814	368.8	0
16	17814	368.9	0
16	17814	369	0
16	17814	369.1	0
16	17814	369.2	0
16	17814	369.3	0
16	17814	369.4	0
16	17814	369.5	0
16	17814	369.6	0
16	17814	369.7	0
16	17814	369.8	0
16	17814	369.9	0
16	17814	370	0
16	17814	370.1	0
16	17814	370.2	0
16	17814	370.3	0
16	17814	370.4	0
16	17814	370.5	0
16	17814	370.6	0
16	17814	370.7	0
16	17814	370.8	0
16	17814	370.9	0
16	17814	371	0
16	17814	371.1	0
16	17814	371.2	0
16	17814	371.3	0
16	17814	371.4	0
16	17814	371.5	0
16	17814	371.6	0
16	17814	371.7	0
16	17814	371.8	0
16	17814	371.9	0
16	17814	372	0
16	17814	372.1	0
16	17814	372.2	0
16	17814	372.3	0
16	17814	372.4	0
16	17814	372.5	0
16	17814	372.6	0
16	17814	372.7	0
16	17814	372.8	0
16	17814	372.9	0
16	17814	373	0
16	17814	373.1	0
16	17814	373.2	0
16	17814	373.3	0
16	17814	373.4	0
16	17814	373.5	0
16	17814	373.6	0
16	17814	373.7	0
16	17814	373.8	0
16	17814	373.9	0
16	17814	374	0
16	17814	374.1	0
16	17814	374.2	0
16	17814	374.3	0
16	17814	374.4	0
16	17814	374.5	0
16	17814	374.6	0
16	17814	374.7	0
16	17814	374.8	0
16	17814	374.9	0
16	17814	375	0
16	17814	375.1	0
16	17814	375.2	0
16	17814	375.3	0
16	17814	375.4	0
16	17814	375.5	0
16	17814	375.6	0
16	17814	375.7	0
16	17814	375.8	0
16	17814	375.9	0
16	17814	376	0
16	17814	376.1	0
16	17814	376.2	0
16	17814	376.3	0
16	17814	376.4	0
16	17814	376.5	0
16	17814	376.6	0
16	17814	376.7	0
16	17814	376.8	0
16	17814	376.9	0
16	17814	377	0
16	17814	377.1	0
16	17814	377.2	0
16	17814	377.3	0
16	17814	377.4	0
16	17814	377.5	0
16	17814	377.6	0
16	17814	377.7	0
16	17814	377.8	0
16	17814	377.9	0
16	17814	378	0
16	17814	378.1	0
16	17814	378.2	0
16	17814	378.3	0
16	17814	378.4	0
16	17814	378.5	0
16	17814	378.6	0
16	17814	378.7	0
16	17814	378.8	0
16	17814	378.9	0
16	17814	379	0
16	17814	379.1	0
16	17814	379.2	0
16	17814	379.3	0
16	17814	379.4	0
16	17814	379.5	0
16	17814	379.6	0
16	17814	379.7	0
16	17814	379.8	0
16	17814	379.9	0
16	17814	380	0
16	17814	380.1	0
16	17814	380.2	0
16	17814	380.3	0
16	17814	380.4	0
16	17814	380.5	0
16	17814	380.6	0
16	17814	380.7	0
16	17814	380.8	0
16	17814	380.9	0
16	17814	381	0
16	17814	381.1	0
16	17814	381.2	0
16	17814	381.3	0
16	17814	381.4	0
16	17814	381.5	0
16	17814	381.6	0
16	17814	381.7	0
16	17814	381.8	0
16	17814	381.9	0
16	17814	382	0
16	17814	382.1	0
16	17814	382.2	0
16	17814	382.3	0
16	17814	382.4	0
16	17814	382.5	0
16	17814	382.6	0
16	17814	382.7	0
16	17814	382.8	0
16	17814	382.9	0
16	17814	383	0
16	17814	383.1	0
16	17814	383.2	0
16	17814	383.3	0
16	17814	383.4	0
16	17814	383.5	0
16	17814	383.6	0
16	17814	383.7	0
16	17814	383.8	0
16	17814	383.9	0
16	17814	384	0
16	17814	384.1	0
16	17814	384.2	0
16	17814	384.3	0
16	17814	384.4	0
16	17814	384.5	0
16	17814	384.6	0
16	17814	384.7	0
16	17814	384.8	0
16	17814	384.9	0
16	17814	385	0
16	17814	385.1	0
16	17814	385.2	0
16	17814	385.3	0
16	17814	385.4	0
16	17814	385.5	0
16	17814	385.6	0
16	17814	385.7	0
16	17814	385.8	0
16	17814	385.9	0
16	17814	386	0
16	17814	386.1	0
16	17814	386.2	0
16	17814	386.3	0
16	17814	386.4	0
16	17814	386.5	0
16	17814	386.6	0
16	17814	386.7	0
16	17814	386.8	0
16	17814	386.9	0
16	17814	387	0
16	17814	387.1	0
16	17814	387.2	0
16	17814	387.3	0
16	17814	387.4	0
16	17814	387.5	0
16	17814	387.6	0
16	17814	387.7	0
16	17814	387.8	0
16	17814	387.9	0
16	17814	388	0
16	17814	388.1	0
16	17814	388.2	0
16	17814	388.3	0
16	17814	388.4	0
16	17814	388.5	0
16	17814	388.6	0
16	17814	388.7	0
16	17814	388.8	0
16	17814	388.9	0
16	17814	389	0
16	17814	389.1	0
16	17814	389.2	0
16	17814	389.3	0
16	17814	389.4	0
16	17814	389.5	0
16	17814	389.6	0
16	17814	389.7	0
16	17814	389.8	0
16	17814	389.9	0
16	17814	390	0
16	17814	390.1	0
16	17814	390.2	0
16	17814	390.3	0
16	17814	390.4	0
16	17814	390.5	0
16	17814	390.6	0
16	17814	390.7	0
16	17814	390.8	0
16	17814	390.9	0
16	17814	391	0
16	17814	391.1	0
16	17814	391.2	0
16	17814	391.3	0
16	17814	391.4	0
16	17814	391.5	0
16	17814	391.6	0
16	17814	391.7	0
16	17814	391.8	0
16	17814	391.9	0
16	17814	392	0
16	17814	392.1	0
16	17814	392.2	0
16	17814	392.3	0
16	17814	392.4	0
16	17814	392.5	0
16	17814	392.6	0
16	17814	392.7	0
16	17814	392.8	0
16	17814	392.9	0
16	17814	393	0
16	17814	393.1	0
16	17814	393.2	0
16	17814	393.3	0
16	17814	393.4	0
16	17814	393.5	0
16	17814	393.6	0
16	17814	393.7	0
16	17814	393.8	0
16	17814	393.9	0
16	17814	394	0
16	17814	394.1	0
16	17814	394.2	0
16	17814	394.3	0
16	17814	394.4	0
16	17814	394.5	0
16	17814	394.6	0
16	17814	394.7	0
16	17814	394.8	0
16	17814	394.9	0
16	17814	395	0
16	17814	395.1	0
16	17814	395.2	0
16	17814	395.3	0
16	17814	395.4	0
16	17814	395.5	0
16	17814	395.6	0
16	17814	395.7	0
16	17814	395.8	0
16	17814	395.9	0
16	17814	396	0
16	17814	396.1	0
16	17814	396.2	0
16	17814	396.3	0
16	17814	396.4	0
16	17814	396.5	0
16	17814	396.6	0
16	17814	396.7	0
16	17814	396.8	0
16	17814	396.9	0
16	17814	397	0
16	17814	397.1	0
16	17814	397.2	0
16	17814	397.3	0
16	17814	397.4	0
16	17814	397.5	0
16	17814	397.6	0
16	17814	397.7	0
16	17814	397.8	0
16	17814	397.9	0
16	17814	398	0
16	17814	398.1	0
16	17814	398.2	0
16	17814	398.3	0
16	17814	398.4	0
16	17814	398.5	0
16	17814	398.6	0
16	17814	398.7	0
16	17814	398.8	0
16	17814	398.9	0
16	17814	399	0
16	17814	399.1	0
16	17814	399.2	0
16	17814	399.3	0
16	17814	399.4	0
16	17814	399.5	0
16	17814	399.6	0
16	17814	399.7	0
16	17814	399.8	0
16	17814	399.9	0
16	17814	400	0
16	17814	400.1	0
16	17814	400.2	0
16	17814	400.3	0
16	17814	400.4	0
16	17814	400.5	0
16	17814	400.6	0
16	17814	400.7	0
16	17814	400.8	0
16	17814	400.9	0
16	17814	401	0
16	17814	401.1	0
16	17814	401.2	0
16	17814	401.3	0
16	17814	401.4	0
16	17814	401.5	0
16	17814	401.6	0
16	17814	401.7	0
16	17814	401.8	0
16	17814	401.9	0
16	17814	402	0
16	17814	402.1	0
16	17814	402.2	0
16	17814	402.3	0
16	17814	402.4	0
16	17814	402.5	0
16	17814	402.6	0
16	17814	402.7	0
16	17814	402.8	0
16	17814	402.9	0
16	17814	403	0
16	17814	403.1	0
16	17814	403.2	0
16	17814	403.3	0
16	17814	403.4	0
16	17814	403.5	0
16	17814	403.6	0
16	17814	403.7	0
16	17814	403.8	0
16	17814	403.9	0
16	17814	404	0
16	17814	404.1	0
16	17814	404.2	0
16	17814	404.3	0
16	17814	404.4	0
16	17814	404.5	0
16	17814	404.6	0
16	17814	404.7	0
16	17814	404.8	0
16	17814	404.9	0
16	17814	405	0
16	17814	405.1	0
16	17814	405.2	0
16	17814	405.3	0
16	17814	405.4	0
16	17814	405.5	0
16	17814	405.6	0
16	17814	405.7	0
16	17814	405.8	0
16	17814	405.9	0
16	17814	406	0
16	17814	406.1	0
16	17814	406.2	0
16	17814	406.3	0
16	17814	406.4	0
16	17814	406.5	0
16	17814	406.6	0
16	17814	406.7	0
16	17814	406.8	0
16	17814	406.9	0
16	17814	407	0
16	17814	407.1	0
16	17814	407.2	0
16	17814	407.3	0
16	17814	407.4	0
16	17814	407.5	0
16	17814	407.6	0
16	17814	407.7	0
16	17814	407.8	0
16	17814	407.9	0
16	17814	408	0
16	17814	408.1	0
16	17814	408.2	0
16	17814	408.3	0
16	17814	408.4	0
16	17814	408.5	0
16	17814	408.6	0
16	17814	408.7	0
16	17814	408.8	0
16	17814	408.9	0
16	17814	409	0
16	17814	409.1	0
16	17814	409.2	0
16	17814	409.3	0
16	17814	409.4	0
16	17814	409.5	0
16	17814	409.6	0
16	17814	409.7	0
16	17814	409.8	0
16	17814	409.9	0
16	17814	410	0
16	17814	410.1	0
16	17814	410.2	0
16	17814	410.3	0
16	17814	410.4	0
16	17814	410.5	0
16	17814	410.6	0
16	17814	410.7	0
16	17814	410.8	0
16	17814	410.9	0
16	17814	411	0
16	17814	411.1	0
16	17814	411.2	0
16	17814	411.3	0
16	17814	411.4	0
16	17814	411.5	0
16	17814	411.6	0
16	17814	411.7	0
16	17814	411.8	0
16	17814	411.9	0
16	17814	412	0
16	17814	412.1	0
16	17814	412.2	0
16	17814	412.3	0
16	17814	412.4	0
16	17814	412.5	0
16	17814	412.6	0
16	17814	412.7	0
16	17814	412.8	0
16	17814	412.9	0
16	17814	413	0
16	17814	413.1	0
16	17814	413.2	0
16	17814	413.3	0
16	17814	413.4	0
16	17814	413.5	0
16	17814	413.6	0
16	17814	413.7	0
16	17814	413.8	0
16	17814	413.9	0
16	17814	414	0
16	17814	414.1	0
16	17814	414.2	0
[...]
21	17814	333.6	0
21	17814	333.7	0
21	17814	333.8	0
21	17814	333.9	0
21	17814	334	0
21	17814	334.1	0
21	17814	334.2	0
21	17814	334.3	0
21	17814	334.4	0
21	17814	334.5	0
21	17814	334.6	0
21	17814	334.7	0
21	17814	334.8	0
21	17814	334.9	0
21	17814	335	0
21	17814	335.1	0
21	17814	335.2	0
21	17814	335.3	0
21	17814	335.4	0
21	17814	335.5	0
21	17814	335.6	0
21	17814	335.7	0
21	17814	335.8	0
21	17814	335.9	0
21	17814	336	0
21	17814	336.1	0
21	17814	336.2	0
21	17814	336.3	0
21	17814	336.4	0
21	17814	336.5	0
21	17814	336.6	0
21	17814	336.7	0
21	17814	336.8	0
21	17814	336.9	0
21	17814	337	0
21	17814	337.1	0
21	17814	337.2	0
21	17814	337.3	0
21	17814	337.4	0
21	17814	337.5	0
21	17814	337.6	0
21	17814	337.7	0
21	17814	337.8	0
21	17814	337.9	0
21	17814	338	0
21	17814	338.1	0
21	17814	338.2	0
21	17814	338.3	0
21	17814	338.4	0
21	17814	338.5	0
21	17814	338.6	0
21	17814	338.7	0
21	17814	338.8	0
21	17814	338.9	0
21	17814	339	0
21	17814	339.1	0
21	17814	339.2	0
21	17814	339.3	0
21	17814	339.4	0
21	17814	339.5	0
21	17814	339.6	0
21	17814	339.7	0
21	17814	339.8	0
21	17814	339.9	0
21	17814	340	0
21	17814	340.1	0
21	17814	340.2	0
21	17814	340.3	0
21	17814	340.4	0
21	17814	340.5	0
21	17814	340.6	0
21	17814	340.7	0
21	17814	340.8	0
21	17814	340.9	0
21	17814	341	0
21	17814	341.1	0
21	17814	341.2	0
21	17814	341.3	0
21	17814	341.4	0
21	17814	341.5	0
21	17814	341.6	0
21	17814	341.7	0
21	17814	341.8	0
21	17814	341.9	0
21	17814	342	0
21	17814	342.1	0
21	17814	342.2	0
21	17814	342.3	0
21	17814	342.4	0
21	17814	342.5	0
21	17814	342.6	0
21	17814	342.7	0
21	17814	342.8	0
21	17814	342.9	0
21	17814	343	0
21	17814	343.1	0
21	17814	343.2	0
21	17814	343.3	0
21	17814	343.4	0
21	17814	343.5	0
21	17814	343.6	0
21	17814	343.7	0
21	17814	343.8	0
21	17814	343.9	0
21	17814	344	0
21	17814	344.1	0
21	17814	344.2	0
21	17814	344.3	0
21	17814	344.4	0
21	17814	344.5	0
21	17814	344.6	0
21	17814	344.7	0
21	17814	344.8	0
21	17814	344.9	0
21	17814	345	0
21	17814	345.1	0
21	17814	345.2	0
21	17814	345.3	0
21	17814	345.4	0
21	17814	345.5	0
21	17814	345.6	0
21	17814	345.7	0
21	17814	345.8	0
21	17814	345.9	0
21	17814	346	0
21	17814	346.1	0
21	17814	346.2	0
21	17814	346.3	0
21	17814	346.4	0
21	17814	346.5	0
21	17814	346.6	0
21	17814	346.7	0
21	17814	346.8	0
21	17814	346.9	0
21	17814	347	0
21	17814	347.1	0
21	17814	347.2	0
21	17814	347.3	0
21	17814	347.4	0
21	17814	347.5	0
21	17814	347.6	0
21	17814	347.7	0
21	17814	347.8	0
21	17814	347.9	0
21	17814	348	0
21	17814	348.1	0
21	17814	348.2	0
21	17814	348.3	0
21	17814	348.4	0
21	17814	348.5	0
21	17814	348.6	0
21	17814	348.7	0
21	17814	348.8	0
21	17814	348.9	0
21	17814	349	0
21	17814	349.1	0
21	17814	349.2	0
21	17814	349.3	0
21	17814	349.4	0
21	17814	349.5	0
21	17814	349.6	0
21	17814	349.7	0
21	17814	349.8	0
21	17814	349.9	0
21	17814	350	0
21	17814	350.1	0
21	17814	350.2	0
21	17814	350.3	0
21	17814	350.4	0
21	17814	350.5	0
21	17814	350.6	0
21	17814	350.7	0
21	17814	350.8	0
21	17814	350.9	0
21	17814	351	0
21	17814	351.1	0
21	17814	351.2	0
21	17814	351.3	0
21	17814	351.4	0
21	17814	351.5	0
21	17814	351.6	0
21	17814	351.7	0
21	17814	351.8	0
21	17814	351.9	0
21	17814	352	0
21	17814	352.1	0
21	17814	352.2	0
21	17814	352.3	0
21	17814	352.4	0
21	17814	352.5	0
21	17814	352.6	0
21	17814	352.7	0
21	17814	352.8	0
21	17814	352.9	0
21	17814	353	0
21	17814	353.1	0
21	17814	353.2	0
21	17814	353.3	0
21	17814	353.4	0
21	17814	353.5	0
21	17814	353.6	0
21	17814	353.7	0
21	17814	353.8	0
21	17814	353.9	0
21	17814	354	0
21	17814	354.1	0
21	17814	354.2	0
21	17814	354.3	0
21	17814	354.4	0
21	17814	354.5	0
21	17814	354.6	0
21	17814	354.7	0
21	17814	354.8	0
21	17814	354.9	0
21	17814	355	0
21	17814	355.1	0
21	17814	355.2	0
21	17814	355.3	0
21	17814	355.4	0
21	17814	355.5	0
21	17814	355.6	0
21	17814	355.7	0
21	17814	355.8	0
21	17814	355.9	0
21	17814	356	0
21	17814	356.1	0
21	17814	356.2	0
21	17814	356.3	0
21	17814	356.4	0
21	17814	356.5	0
21	17814	356.6	0
21	17814	356.7	0
21	17814	356.8	0
21	17814	356.9	0
21	17814	357	0
21	17814	357.1	0
21	17814	357.2	0
21	17814	357.3	0
21	17814	357.4	0
21	17814	357.5	0
21	17814	357.6	0
21	17814	357.7	0
21	17814	357.8	0
21	17814	357.9	0
21	17814	358	0
21	17814	358.1	0
21	17814	358.2	0
21	17814	358.3	0
21	17814	358.4	0
21	17814	358.5	0
21	17814	358.6	0
21	17814	358.7	0
21	17814	358.8	0
21	17814	358.9	0
21	17814	359	0
21	17814	359.1	0
21	17814	359.2	0
21	17814	359.3	0
21	17814	359.4	0
21	17814	359.5	0
21	17814	359.6	0
21	17814	359.7	0
21	17814	359.8	0
21	17814	359.9	0
21	17814	360	0
21	17814	360.1	0
21	17814	360.2	0
21	17814	360.3	0
21	17814	360.4	0
21	17814	360.5	0
21	17814	360.6	0
21	17814	360.7	0
21	17814	360.8	0
21	17814	360.9	0
21	17814	361	0
21	17814	361.1	0
21	17814	361.2	0
21	17814	361.3	0
21	17814	361.4	0
21	17814	361.5	0
21	17814	361.6	0
21	17814	361.7	0
21	17814	361.8	0
21	17814	361.9	0
21	17814	362	0
21	17814	362.1	0
21	17814	362.2	0
21	17814	362.3	0
21	17814	362.4	0
21	17814	362.5	0
21	17814	362.6	0
21	17814	362.7	0
21	17814	362.8	0
21	17814	362.9	0
21	17814	363	0
21	17814	363.1	0
21	17814	363.2	0
21	17814	363.3	0
21	17814	363.4	0
21	17814	363.5	0
21	17814	363.6	0
21	17814	363.7	0
21	17814	363.8	0
21	17814	363.9	0
21	17814	364	0
21	17814	364.1	0
21	17814	364.2	0
21	17814	364.3	0
21	17814	364.4	0
21	17814	364.5	0
21	17814	364.6	0
21	17814	364.7	0
21	17814	364.8	0
21	17814	364.9	0
21	17814	365	0
21	17814	365.1	0
21	17814	365.2	0
21	17814	365.3	0
21	17814	365.4	0
21	17814	365.5	0
21	17814	365.6	0
21	17814	365.7	0
21	17814	365.8	0
21	17814	365.9	0
21	17814	366	0
21	17814	366.1	0
21	17814	366.2	0
21	17814	366.3	0
21	17814	366.4	0
21	17814	366.5	0
21	17814	366.6	0
21	17814	366.7	0
21	17814	366.8	0
21	17814	366.9	0
21	17814	367	0
21	17814	367.1	0
21	17814	367.2	0
21	17814	367.3	0
21	17814	367.4	0
21	17814	367.5	0
21	17814	367.6	0
21	17814	367.7	0
21	17814	367.8	0
21	17814	367.9	0
21	17814	368	0
21	17814	368.1	0
21	17814	368.2	0
21	17814	368.3	0
21	17814	368.4	0
21	17814	368.5	0
21	17814	368.6	0
21	17814	368.7	0
21	17814	368.8	0
21	17814	368.9	0
21	17814	369	0
21	17814	369.1	0
21	17814	369.2	0
21	17814	369.3	0
21	17814	369.4	0
21	17814	369.5	0
21	17814	369.6	0
21	17814	369.7	0
21	17814	369.8	0
21	17814	369.9	0
21	17814	370	0
21	17814	370.1	0
21	17814	370.2	0
21	17814	370.3	0
21	17814	370.4	0
21	17814	370.5	0
21	17814	370.6	0
21	17814	370.7	0
21	17814	370.8	0
21	17814	370.9	0
21	17814	371	0
21	17814	371.1	0
21	17814	371.2	0
21	17814	371.3	0
21	17814	371.4	0
21	17814	371.5	0
21	17814	371.6	0
21	17814	371.7	0
21	17814	371.8	0
21	17814	371.9	0
21	17814	372	0
21	17814	372.1	0
21	17814	372.2	0
21	17814	372.3	0
21	17814	372.4	0
21	17814	372.5	0
21	17814	372.6	0
21	17814	372.7	0
21	17814	372.8	0
21	17814	372.9	0
21	17814	373	0
21	17814	373.1	0
21	17814	373.2	0
21	17814	373.3	0
21	17814	373.4	0
21	17814	373.5	0
21	17814	373.6	0
21	17814	373.7	0
21	17814	373.8	0
21	17814	373.9	0
21	17814	374	0
21	17814	374.1	0
21	17814	374.2	0
21	17814	374.3	0
21	17814	374.4	0
21	17814	374.5	0
21	17814	374.6	0
21	17814	374.7	0
21	17814	374.8	0
21	17814	374.9	0
21	17814	375	0
21	17814	375.1	0
21	17814	375.2	0
21	17814	375.3	0
21	17814	375.4	0
21	17814	375.5	0
21	17814	375.6	0
21	17814	375.7	0
21	17814	375.8	0
21	17814	375.9	0
21	17814	376	0
21	17814	376.1	0
21	17814	376.2	0
21	17814	376.3	0
21	17814	376.4	0
21	17814	376.5	0
21	17814	376.6	0
21	17814	376.7	0
21	17814	376.8	0
21	17814	376.9	0
21	17814	377	0
21	17814	377.1	0
21	17814	377.2	0
21	17814	377.3	0
21	17814	377.4	0
21	17814	377.5	0
21	17814	377.6	0
21	17814	377.7	0
21	17814	377.8	0
21	17814	377.9	0
21	17814	378	0
21	17814	378.1	0
21	17814	378.2	0
21	17814	378.3	0
21	17814	378.4	0
21	17814	378.5	0
21	17814	378.6	0
21	17814	378.7	0
21	17814	378.8	0
21	17814	378.9	0
21	17814	379	0
21	17814	379.1	0
21	17814	379.2	0
21	17814	379.3	0
21	17814	379.4	0
21	17814	379.5	0
21	17814	379.6	0
21	17814	379.7	0
21	17814	379.8	0
21	17814	379.9	0
21	17814	380	0
21	17814	380.1	0
21	17814	380.2	0
21	17814	380.3	0
21	17814	380.4	0
21	17814	380.5	0
21	17814	380.6	0
21	17814	380.7	0
21	17814	380.8	0
21	17814	380.9	0
21	17814	381	0
21	17814	381.1	0
21	17814	381.2	0
21	17814	381.3	0
21	17814	381.4	0
21	17814	381.5	0
21	17814	381.6	0
21	17814	381.7	0
21	17814	381.8	0
21	17814	381.9	0
21	17814	382	0
21	17814	382.1	0
21	17814	382.2	0
21	17814	382.3	0
21	17814	382.4	0
21	17814	382.5	0
21	17814	382.6	0
21	17814	382.7	0
21	17814	382.8	0
21	17814	382.9	0
21	17814	383	0
21	17814	383.1	0
21	17814	383.2	0
21	17814	383.3	0
21	17814	383.4	0
21	17814	383.5	0
21	17814	383.6	0
21	17814	383.7	0
21	17814	383.8	0
21	17814	383.9	0
21	17814	384	0
21	17814	384.1	0
21	17814	384.2	0
21	17814	384.3	0
21	17814	384.4	0
21	17814	384.5	0
21	17814	384.6	0
21	17814	384.7	0
21	17814	384.8	0
21	17814	384.9	0
21	17814	385	0
21	17814	385.1	0
21	17814	385.2	0
21	17814	385.3	0
21	17814	385.4	0
21	17814	385.5	0
21	17814	385.6	0
21	17814	385.7	0
21	17814	385.8	0
21	17814	385.9	0
21	17814	386	0
21	17814	386.1	0
21	17814	386.2	0
21	17814	386.3	0
21	17814	386.4	0
21	17814	386.5	0
21	17814	386.6	0
21	17814	386.7	0
21	17814	386.8	0
21	17814	386.9	0
21	17814	387	0
21	17814	387.1	0
21	17814	387.2	0
21	17814	387.3	0
21	17814	387.4	0
21	17814	387.5	0
21	17814	387.6	0
21	17814	387.7	0
21	17814	387.8	0
21	17814	387.9	0
21	17814	388	0
21	17814	388.1	0
21	17814	388.2	0
21	17814	388.3	0
21	17814	388.4	0
21	17814	388.5	0
21	17814	388.6	0
21	17814	388.7	0
21	17814	388.8	0
21	17814	388.9	0
21	17814	389	0
21	17814	389.1	0
21	17814	389.2	0
21	17814	389.3	0
21	17814	389.4	0
21	17814	389.5	0
21	17814	389.6	0
21	17814	389.7	0
21	17814	389.8	0
21	17814	389.9	0
21	17814	390	0
21	17814	390.1	0
21	17814	390.2	0
21	17814	390.3	0
21	17814	390.4	0
21	17814	390.5	0
21	17814	390.6	0
21	17814	390.7	0
21	17814	390.8	0
21	17814	390.9	0
21	17814	391	0
21	17814	391.1	0
21	17814	391.2	0
21	17814	391.3	0
21	17814	391.4	0
21	17814	391.5	0
21	17814	391.6	0
21	17814	391.7	0
21	17814	391.8	0
21	17814	391.9	0
21	17814	392	0
21	17814	392.1	0
21	17814	392.2	0
21	17814	392.3	0
21	17814	392.4	0
21	17814	392.5	0
21	17814	392.6	0
21	17814	392.7	0
21	17814	392.8	0
21	17814	392.9	0
21	17814	393	0
21	17814	393.1	0
21	17814	393.2	0
21	17814	393.3	0
21	17814	393.4	0
21	17814	393.5	0
21	17814	393.6	0
21	17814	393.7	0
21	17814	393.8	0
21	17814	393.9	0
21	17814	394	0
21	17814	394.1	0
21	17814	394.2	0
21	17814	394.3	0
21	17814	394.4	0
21	17814	394.5	0
21	17814	394.6	0
21	17814	394.7	0
21	17814	394.8	0
21	17814	394.9	0
21	17814	395	0
21	17814	395.1	0
21	17814	395.2	0
21	17814	395.3	0
21	17814	395.4	0
21	17814	395.5	0
21	17814	395.6	0
21	17814	395.7	0
21	17814	395.8	0
21	17814	395.9	0
21	17814	396	0
21	17814	396.1	0
21	17814	396.2	0
21	17814	396.3	0
21	17814	396.4	0
21	17814	396.5	0
21	17814	396.6	0
21	17814	396.7	0
21	17814	396.8	0
21	17814	396.9	0
21	17814	397	0
21	17814	397.1	0
21	17814	397.2	0
21	17814	397.3	0
21	17814	397.4	0
21	17814	397.5	0
21	17814	397.6	0
21	17814	397.7	0
21	17814	397.8	0
21	17814	397.9	0
21	17814	398	0
21	17814	398.1	0
21	17814	398.2	0
21	17814	398.3	0
21	17814	398.4	0
21	17814	398.5	0
21	17814	398.6	0
21	17814	398.7	0
21	17814	398.8	0
21	17814	398.9	0
21	17814	399	0
21	17814	399.1	0
21	17814	399.2	0
21	17814	399.3	0
21	17814	399.4	0
21	17814	399.5	0
21	17814	399.6	0
21	17814	399.7	0
21	17814	399.8	0
21	17814	399.9	0
21	17814	400	0
21	17814	400.1	0
21	17814	400.2	0
21	17814	400.3	0
21	17814	400.4	0
21	17814	400.5	0
21	17814	400.6	0
21	17814	400.7	0
21	17814	400.8	0
21	17814	400.9	0
21	17814	401	0
21	17814	401.1	0
21	17814	401.2	0
21	17814	401.3	0
21	17814	401.4	0
21	17814	401.5	0
21	17814	401.6	0
21	17814	401.7	0
21	17814	401.8	0
21	17814	401.9	0
21	17814	402	0
21	17814	402.1	0
21	17814	402.2	0
21	17814	402.3	0
21	17814	402.4	0
21	17814	402.5	0
21	17814	402.6	0
21	17814	402.7	0
21	17814	402.8	0
21	17814	402.9	0
21	17814	403	0
21	17814	403.1	0
21	17814	403.2	0
21	17814	403.3	0
21	17814	403.4	0
21	17814	403.5	0
21	17814	403.6	0
21	17814	403.7	0
21	17814	403.8	0
21	17814	403.9	0
21	17814	404	0
21	17814	404.1	0
21	17814	404.2	0
21	17814	404.3	0
21	17814	404.4	0
21	17814	404.5	0
21	17814	404.6	0
21	17814	404.7	0
21	17814	404.8	0
21	17814	404.9	0
21	17814	405	0
21	17814	405.1	0
21	17814	405.2	0
21	17814	405.3	0
21	17814	405.4	0
21	17814	405.5	0
21	17814	405.6	0
21	17814	405.7	0
21	17814	405.8	0
21	17814	405.9	0
21	17814	406	0
21	17814	406.1	0
21	17814	406.2	0
21	17814	406.3	0
21	17814	406.4	0
21	17814	406.5	0
21	17814	406.6	0
21	17814	406.7	0
21	17814	406.8	0
21	17814	406.9	0
21	17814	407	0
21	17814	407.1	0
21	17814	407.2	0
21	17814	407.3	0
21	17814	407.4	0
21	17814	407.5	0
21	17814	407.6	0
21	17814	407.7	0
21	17814	407.8	0
21	17814	407.9	0
21	17814	408	0
21	17814	408.1	0
21	17814	408.2	0
21	17814	408.3	0
21	17814	408.4	0
21	17814	408.5	0
21	17814	408.6	0
21	17814	408.7	0
21	17814	408.8	0
21	17814	408.9	0
21	17814	409	0
21	17814	409.1	0
21	17814	409.2	0
21	17814	409.3	0
21	17814	409.4	0
21	17814	409.5	0
21	17814	409.6	0
21	17814	409.7	0
21	17814	409.8	0
21	17814	409.9	0
21	17814	410	0
21	17814	410.1	0
21	17814	410.2	0
21	17814	410.3	0
21	17814	410.4	0
21	17814	410.5	0
21	17814	410.6	0
21	17814	410.7	0
21	17814	410.8	0
21	17814	410.9	0
21	17814	411	0
21	17814	411.1	0
21	17814	411.2	0
21	17814	411.3	0
21	17814	411.4	0
21	17814	411.5	0
21	17814	411.6	0
21	17814	411.7	0
21	17814	411.8	0
21	17814	411.9	0
21	17814	412	0
21	17814	412.1	0
21	17814	412.2	0
21	17814	412.3	0
21	17814	412.4	0
21	17814	412.5	0
21	17814	412.6	0
21	17814	412.7	0
21	17814	412.8	0
21	17814	412.9	0
21	17814	413	0
21	17814	413.1	0
21	17814	413.2	0
21	17814	413.3	0
21	17814	413.4	0
21	17814	413.5	0
21	17814	413.6	0
21	17814	413.7	0
21	17814	413.8	0
21	17814	413.9	0
21	17814	414	0
21	17814	414.1	0
21	17814	414.2	0
21	17814	414.3	0
21	17814	414.4	0
21	17814	414.5	0
21	17814	414.6	0
21	17814	414.7	0
21	17814	414.8	0
21	17814	414.9	0
21	17814	415	0
21	17814	415.1	0
21	17814	415.2	0
21	17814	415.3	0
21	17814	415.4	0
21	17814	415.5	0
21	17814	415.6	0
21	17814	415.7	0
21	17814	415.8	0
21	17814	415.9	0
21	17814	416	0
21	17814	416.1	0
21	17814	416.2	0
21	17814	416.3	0
21	17814	416.4	0
21	17814	416.5	0
21	17814	416.6	0
21	17814	416.7	0
21	17814	416.8	0
21	17814	416.9	0
21	17814	417	0
21	17814	417.1	0
21	17814	417.2	0
21	17814	417.3	0
21	17814	417.4	0
21	17814	417.5	0
21	17814	417.6	0
21	17814	417.7	0
21	17814	417.8	0
21	17814	417.9	0
21	17814	418	0
21	17814	418.1	0
21	17814	418.2	0
21	17814	418.3	0
21	17814	418.4	0
21	17814	418.5	0
21	17814	418.6	0
21	17814	418.7	0
21	17814	418.8	0
21	17814	418.9	0
21	17814	419	0
21	17814	419.1	0
21	17814	419.2	0
21	17814	419.3	0
21	17814	419.4	0
21	17814	419.5	0
21	17814	419.6	0
21	17814	419.7	0
21	17814	419.8	0
21	17814	419.9	0
21	17814	420	0
21	17814	420.1	0
21	17814	420.2	0
21	17814	420.3	0
21	17814	420.4	0
21	17814	420.5	0
21	17814	420.6	0
21	17814	420.7	0
21	17814	420.8	0
21	17814	420.9	0
21	17814	421	0
21	17814	421.1	0
21	17814	421.2	0
21	17814	421.3	0
21	17814	421.4	0
21	17814	421.5	0
21	17814	421.6	0
21	17814	421.7	0
21	17814	421.8	0
21	17814	421.9	0
21	17814	422	0
21	17814	422.1	0
21	17814	422.2	0
21	17814	422.3	0
21	17814	422.4	0
21	17814	422.5	0
21	17814	422.6	0
21	17814	422.7	0
21	17814	422.8	0
21	17814	422.9	0
21	17814	423	0
21	17814	423.1	0
21	17814	423.2	0
21	17814	423.3	0
21	17814	423.4	0
21	17814	423.5	0
21	17814	423.6	0
21	17814	423.7	0
21	17814	423.8	0
21	17814	423.9	0
21	17814	424	0
21	17814	424.1	0
21	17814	424.2	0
21	17814	424.3	0
21	17814	424.4	0
21	17814	424.5	0
21	17814	424.6	0
21	17814	424.7	0
21	17814	424.8	0
21	17814	424.9	0
21	17814	425	0
21	17814	425.1	0
21	17814	425.2	0
21	17814	425.3	0
21	17814	425.4	0
21	17814	425.5	0
21	17814	425.6	0
21	17814	425.7	0
21	17814	425.8	0
21	17814	425.9	0
21	17814	426	0
21	17814	426.1	0
21	17814	426.2	0
21	17814	426.3	0
21	17814	426.4	0
21	17814	426.5	0
21	17814	426.6	0
21	17814	426.7	0
21	17814	426.8	0
21	17814	426.9	0
21	17814	427	0
21	17814	427.1	0
21	17814	427.2	0
21	17814	427.3	0
21	17814	427.4	0
21	17814	427.5	0
21	17814	427.6	0
21	17814	427.7	0
21	17814	427.8	0
21	17814	427.9	0
21	17814	428	0
21	17814	428.1	0
21	17814	428.2	0
21	17814	428.3	0
21	17814	428.4	0
21	17814	428.5	0
21	17814	428.6	0
21	17814	428.7	0
21	17814	428.8	0
21	17814	428.9	0
21	17814	429	0
21	17814	429.1	0
21	17814	429.2	0
21	17814	429.3	0
21	17814	429.4	0
21	17814	429.5	0
21	17814	429.6	0
21	17814	429.7	0
21	17814	429.8	0
21	17814	429.9	0
21	17814	430	0
21	17814	430.1	0
21	17814	430.2	0
21	17814	430.3	0
21	17814	430.4	0
21	17814	430.5	0
21	17814	430.6	0
21	17814	430.7	0
21	17814	430.8	0
21	17814	430.9	0
21	17814	431	0
21	17814	431.1	0
21	17814	431.2	0
21	17814	431.3	0
21	17814	431.4	0
21	17814	431.5	0
21	17814	431.6	0
21	17814	431.7	0
21	17814	431.8	0
21	17814	431.9	0
21	17814	432	0
21	17814	432.1	0
21	17814	432.2	0
21	17814	432.3	0
21	17814	432.4	0
21	17814	432.5	0
21	17814	432.6	0
21	17814	432.7	0
21	17814	432.8	0
21	17814	432.9	0
21	17814	433	0
21	17814	433.1	0
21	17814	433.2	0
21	17814	433.3	0
21	17814	433.4	0
21	17814	433.5	0
21	17814	433.6	0
21	17814	433.7	0
21	17814	433.8	0
21	17814	433.9	0
21	17814	434	0
21	17814	434.1	0
21	17814	434.2	0
21	17814	434.3	0
21	17814	434.4	0
21	17814	434.5	0
21	17814	434.6	0
21	17814	434.7	0
21	17814	434.8	0
21	17814	434.9	0
21	17814	435	0
21	17814	435.1	0
21	17814	435.2	0
21	17814	435.3	0
21	17814	435.4	0
21	17814	435.5	0
21	17814	435.6	0
21	17814	435.7	0
21	17814	435.8	0
21	17814	435.9	0
21	17814	436	0
21	17814	436.1	0
21	17814	436.2	0
21	17814	436.3	0
21	17814	436.4	0
21	17814	436.5	0
21	17814	436.6	0
21	17814	436.7	0
21	17814	436.8	0
21	17814	436.9	0
21	17814	437	0
21	17814	437.1	0
21	17814	437.2	0
21	17814	437.3	0
21	17814	437.4	0
21	17814	437.5	0
21	17814	437.6	0
21	17814	437.7	0
21	17814	437.8	0
21	17814	437.9	0
21	17814	438	0
21	17814	438.1	0
21	17814	438.2	0
21	17814	438.3	0
21	17814	438.4	0
21	17814	438.5	0
21	17814	438.6	0
21	17814	438.7	0
21	17814	438.8	0
21	17814	438.9	0
21	17814	439	0
21	17814	439.1	0
21	17814	439.2	0
21	17814	439.3	0
21	17814	439.4	0
21	17814	439.5	0
21	17814	439.6	0
21	17814	439.7	0
21	17814	439.8	0
21	17814	439.9	0
21	17814	440	0
21	17814	440.1	0
21	17814	440.2	0
21	17814	440.3	0
21	17814	440.4	0
21	17814	440.5	0
21	17814	440.6	0
21	17814	440.7	0
21	17814	440.8	0
21	17814	440.9	0
21	17814	441	0
21	17814	441.1	0
21	17814	441.2	0
21	17814	441.3	0
21	17814	441.4	0
21	17814	441.5	0
21	17814	441.6	0
21	17814	441.7	0
21	17814	441.8	0
21	17814	441.9	0
21	17814	442	0
21	17814	442.1	0
21	17814	442.2	0
21	17814	442.3	0
21	17814	442.4	0
21	17814	442.5	0
21	17814	442.6	0
21	17814	442.7	0
21	17814	442.8	0
21	17814	442.9	0
21	17814	443	0
21	17814	443.1	0
21	17814	443.2	0
21	17814	443.3	0
21	17814	443.4	0
21	17814	443.5	0
21	17814	443.6	0
21	17814	443.7	0
21	17814	443.8	0
21	17814	443.9	0
21	17814	444	0
21	17814	444.1	0
21	17814	444.2	0
21	17814	444.3	0
21	17814	444.4	0
21	17814	444.5	0
21	17814	444.6	0
21	17814	444.7	0
21	17814	444.8	0
21	17814	444.9	0
21	17814	445	0
21	17814	445.1	0
21	17814	445.2	0
21	17814	445.3	0
21	17814	445.4	0
21	17814	445.5	0
21	17814	445.6	0
21	17814	445.7	0
21	17814	445.8	0

