version 2
run Sim1drone1sensor-0-20210527-20:33:55-5096
attr configname Sim1drone1sensor
attr datetime 20210527-20:33:55
attr experiment Sim1drone1sensor
attr inifile mobilityDrones-omnetpp.ini
attr iterationvars ""
attr iterationvarsf ""
attr measurement ""
attr network mobilityDrones
attr processid 5096
attr repetition 0
attr replication #0
attr resultdir results
attr runnumber 0
attr seedset 0
param *.numUAVs 1
param *.drones[*].app[0].destAddresses "\"sensor1\""
param *.sensor*.app[0].destAddresses "\"drones[0]\""
param *.sensor1.mobility.initialX 450m
param *.sensor1.mobility.initialY 450m
param *.sensor1.mobility.initialZ 0m
param *.visualizer.osgVisualizer.typename "\"IntegratedOsgVisualizer\""
param *.visualizer.osgVisualizer.sceneVisualizer.typename "\"SceneOsgEarthVisualizer\""
param *.visualizer.osgVisualizer.sceneVisualizer.mapFile "\"map.earth\""
param *.visualizer.osgVisualizer.sceneVisualizer.sceneImageSize 10000m
param *.visualizer.osgVisualizer.sceneVisualizer.axisLength 500m
param *.visualizer.osgVisualizer.sceneVisualizer.sceneMinX -200m
param *.visualizer.osgVisualizer.sceneVisualizer.sceneMinY -200m
param *.visualizer.osgVisualizer.sceneVisualizer.sceneMinZ 0m
param *.visualizer.osgVisualizer.sceneVisualizer.sceneMaxX 5000m
param *.visualizer.osgVisualizer.sceneVisualizer.sceneMaxY 5000m
param *.visualizer.osgVisualizer.sceneVisualizer.sceneMaxZ 5000m
param *.visualizer.osgVisualizer.networkNodeVisualizer.displayModuleName true
param *.visualizer.*.mobilityVisualizer.displayMobility true
param *.visualizer.*.mobilityVisualizer.displayPositions true
param *.visualizer.*.mobilityVisualizer.displayOrientations true
param *.visualizer.*.mobilityVisualizer.displayVelocities true
param *.visualizer.*.mobilityVisualizer.displayMovementTrails true
param *.visualizer.*.mobilityVisualizer.animationSpeed 10
param *.visualizer.mediumVisualizer.displaySignals true
param **.constraintAreaMinX -500m
param **.constraintAreaMinY -500m
param **.constraintAreaMinZ -500m
param **.constraintAreaMaxX 5000m
param **.constraintAreaMaxY 5000m
param **.constraintAreaMaxZ 5000m
param *.drones*.wlan[0].radio.displayCommunicationRange true
param *.coordinateSystem.sceneLongitude -43.22260deg
param *.coordinateSystem.sceneLatitude -22.97556deg
param *.coordinateSystem.sceneHeading 90deg
param *.environment.ground.typename "\"FlatGround\""
param *.drones[*].osgModel "\"3d/drone.ive.100.scale.0,0,90.rot\""
param *.drones[*].mobility.typename "\"DroneMobility\""
param *.drones[*].mobility.coordinateSystemModule "\"coordinateSystem\""
param *.drones[*].mobility.waypointFile "\"geoJockeyPath.wpl\""
param *.drones[*].mobility.climbAngle 30deg
param *.drones[*].mobility.waypointProximity 5m
param **.mobility.initFromDisplayString false
param *.drones[*].mobility.speed uniform(10mps,20mps)
param *.sensor.mobility.typename "\"StationaryMobility\""
param *.sensor*.numApps 2
param *.sensor*.app[0].typename "\"UdpBasicAppMobileSensorNode\""
param *.sensor*.app[0].destPort 1000
param *.sensor*.app[0].sendInterval 0.1s
param *.sensor*.app[0].startTime 1s
param *.sensor*.app[0].messageLength 1454Byte
param *.sensor*.app[0].packetName "\"SENSOR-DEFAULT-PAYLOAD\""
param *.sensor*.app[1].typename "\"UdpSinkMobileSensorNode\""
param *.sensor*.app[1].localPort 1000

vector 0 mobilityDrones.drones[0].wlan[0].radio radioMode:vector ETV
attr interpolationmode sample-hold
attr source radioModeChanged
attr title "Radio mode, vector"
vector 1 mobilityDrones.drones[0].wlan[0].radio radioChannel:vector ETV
attr interpolationmode sample-hold
attr source radioChannelChanged
attr title "Radio channel, vector"
vector 2 mobilityDrones.sensor1.wlan[0].radio radioMode:vector ETV
attr interpolationmode sample-hold
attr source radioModeChanged
attr title "Radio mode, vector"
vector 3 mobilityDrones.sensor1.wlan[0].radio radioChannel:vector ETV
attr interpolationmode sample-hold
attr source radioChannelChanged
attr title "Radio channel, vector"
vector 4 mobilityDrones.sensor2.wlan[0].radio radioMode:vector ETV
attr interpolationmode sample-hold
attr source radioModeChanged
attr title "Radio mode, vector"
vector 5 mobilityDrones.sensor2.wlan[0].radio radioChannel:vector ETV
attr interpolationmode sample-hold
attr source radioChannelChanged
attr title "Radio channel, vector"
vector 6 mobilityDrones.sensor3.wlan[0].radio radioMode:vector ETV
attr interpolationmode sample-hold
attr source radioModeChanged
attr title "Radio mode, vector"
vector 7 mobilityDrones.sensor3.wlan[0].radio radioChannel:vector ETV
attr interpolationmode sample-hold
attr source radioChannelChanged
attr title "Radio channel, vector"
vector 8 mobilityDrones.drones[0].wlan[0].radio receptionState:vector ETV
attr interpolationmode sample-hold
attr source receptionStateChanged
attr title "Radio reception state, vector"
vector 9 mobilityDrones.sensor1.wlan[0].radio receptionState:vector ETV
attr interpolationmode sample-hold
attr source receptionStateChanged
attr title "Radio reception state, vector"
vector 10 mobilityDrones.sensor2.wlan[0].radio receptionState:vector ETV
attr interpolationmode sample-hold
attr source receptionStateChanged
attr title "Radio reception state, vector"
vector 11 mobilityDrones.sensor3.wlan[0].radio receptionState:vector ETV
attr interpolationmode sample-hold
attr source receptionStateChanged
attr title "Radio reception state, vector"
vector 12 mobilityDrones.drones[0].wlan[0].mac.dcf.recoveryProcedure contentionWindowChanged:vector ETV
attr interpolationmode sample-hold
attr title "contention window, vector"
vector 13 mobilityDrones.sensor1.wlan[0].mac.dcf.recoveryProcedure contentionWindowChanged:vector ETV
attr interpolationmode sample-hold
attr title "contention window, vector"
vector 14 mobilityDrones.sensor2.wlan[0].mac.dcf.recoveryProcedure contentionWindowChanged:vector ETV
attr interpolationmode sample-hold
attr title "contention window, vector"
vector 15 mobilityDrones.sensor3.wlan[0].mac.dcf.recoveryProcedure contentionWindowChanged:vector ETV
attr interpolationmode sample-hold
attr title "contention window, vector"
0	0	0	0
0	0	0	0
0	0	0	2
1	0	0	0
2	0	0	0
2	0	0	0
2	0	0	2
3	0	0	0
4	0	0	0
4	0	0	0
4	0	0	2
5	0	0	0
6	0	0	0
6	0	0	0
6	0	0	2
7	0	0	0
8	0	0	1
9	0	0	1
10	0	0	1
11	0	0	1
12	0	0	31
13	0	0	31
14	0	0	31
15	0	0	31
vector 16 mobilityDrones.sensor1.app[0] throughput:vector ETV
attr source throughput(packetReceived)
attr title "throughput, vector"
attr unit bps
vector 17 mobilityDrones.sensor1.app[1] throughput:vector ETV
attr source throughput(packetReceived)
attr title "throughput, vector"
attr unit bps
vector 18 mobilityDrones.sensor2.app[0] throughput:vector ETV
attr source throughput(packetReceived)
attr title "throughput, vector"
attr unit bps
vector 19 mobilityDrones.sensor2.app[1] throughput:vector ETV
attr source throughput(packetReceived)
attr title "throughput, vector"
attr unit bps
vector 20 mobilityDrones.sensor3.app[0] throughput:vector ETV
attr source throughput(packetReceived)
attr title "throughput, vector"
attr unit bps
vector 21 mobilityDrones.sensor3.app[1] throughput:vector ETV
attr source throughput(packetReceived)
attr title "throughput, vector"
attr unit bps
16	7321	0.1	0
16	7321	0.2	0
16	7321	0.3	0
16	7321	0.4	0
16	7321	0.5	0
16	7321	0.6	0
16	7321	0.7	0
16	7321	0.8	0
16	7321	0.9	0
16	7321	1	0
16	7321	1.1	0
16	7321	1.2	0
16	7321	1.3	0
16	7321	1.4	0
16	7321	1.5	0
16	7321	1.6	0
16	7321	1.7	0
16	7321	1.8	0
16	7321	1.9	0
16	7321	2	0
16	7321	2.1	0
16	7321	2.2	0
16	7321	2.3	0
16	7321	2.4	0
16	7321	2.5	0
16	7321	2.6	0
16	7321	2.7	0
16	7321	2.8	0
16	7321	2.9	0
16	7321	3	0
16	7321	3.1	0
16	7321	3.2	0
16	7321	3.3	0
16	7321	3.4	0
16	7321	3.5	0
16	7321	3.6	0
16	7321	3.7	0
16	7321	3.8	0
16	7321	3.9	0
16	7321	4	0
16	7321	4.1	0
16	7321	4.2	0
16	7321	4.3	0
16	7321	4.4	0
16	7321	4.5	0
16	7321	4.6	0
16	7321	4.7	0
16	7321	4.8	0
16	7321	4.9	0
16	7321	5	0
16	7321	5.1	0
16	7321	5.2	0
16	7321	5.3	0
16	7321	5.4	0
16	7321	5.5	0
16	7321	5.6	0
16	7321	5.7	0
16	7321	5.8	0
16	7321	5.9	0
16	7321	6	0
16	7321	6.1	0
16	7321	6.2	0
16	7321	6.3	0
16	7321	6.4	0
16	7321	6.5	0
16	7321	6.6	0
16	7321	6.7	0
16	7321	6.8	0
16	7321	6.9	0
16	7321	7	0
16	7321	7.1	0
16	7321	7.2	0
16	7321	7.3	0
16	7321	7.4	0
16	7321	7.5	0
16	7321	7.6	0
16	7321	7.7	0
16	7321	7.8	0
16	7321	7.9	0
16	7321	8	0
16	7321	8.1	0
16	7321	8.2	0
16	7321	8.3	0
16	7321	8.4	0
16	7321	8.5	0
16	7321	8.6	0
16	7321	8.7	0
16	7321	8.8	0
16	7321	8.9	0
16	7321	9	0
16	7321	9.1	0
16	7321	9.2	0
16	7321	9.3	0
16	7321	9.4	0
16	7321	9.5	0
16	7321	9.6	0
16	7321	9.7	0
16	7321	9.8	0
16	7321	9.9	0
16	7321	10	0
16	7321	10.1	0
16	7321	10.2	0
16	7321	10.3	0
16	7321	10.4	0
16	7321	10.5	0
16	7321	10.6	0
16	7321	10.7	0
16	7321	10.8	0
16	7321	10.9	0
16	7321	11	0
16	7321	11.1	0
16	7321	11.2	0
16	7321	11.3	0
16	7321	11.4	0
16	7321	11.5	0
16	7321	11.6	0
16	7321	11.7	0
16	7321	11.8	0
16	7321	11.9	0
16	7321	12	0
16	7321	12.1	0
16	7321	12.2	0
16	7321	12.3	0
16	7321	12.4	0
16	7321	12.5	0
16	7321	12.6	0
16	7321	12.7	0
16	7321	12.8	0
16	7321	12.9	0
16	7321	13	0
16	7321	13.1	0
16	7321	13.2	0
16	7321	13.3	0
16	7321	13.4	0
16	7321	13.5	0
16	7321	13.6	0
16	7321	13.7	0
16	7321	13.8	0
16	7321	13.9	0
16	7321	14	0
16	7321	14.1	0
16	7321	14.2	0
16	7321	14.3	0
16	7321	14.4	0
16	7321	14.5	0
16	7321	14.6	0
16	7321	14.7	0
16	7321	14.8	0
16	7321	14.9	0
16	7321	15	0
16	7321	15.1	0
16	7321	15.2	0
16	7321	15.3	0
16	7321	15.4	0
16	7321	15.5	0
16	7321	15.6	0
16	7321	15.7	0
16	7321	15.8	0
16	7321	15.9	0
16	7321	16	0
16	7321	16.1	0
16	7321	16.2	0
16	7321	16.3	0
16	7321	16.4	0
16	7321	16.5	0
16	7321	16.6	0
16	7321	16.7	0
16	7321	16.8	0
16	7321	16.9	0
16	7321	17	0
16	7321	17.1	0
16	7321	17.2	0
16	7321	17.3	0
16	7321	17.4	0
16	7321	17.5	0
16	7321	17.6	0
16	7321	17.7	0
16	7321	17.8	0
16	7321	17.9	0
16	7321	18	0
16	7321	18.1	0
16	7321	18.2	0
16	7321	18.3	0
16	7321	18.4	0
16	7321	18.5	0
16	7321	18.6	0
16	7321	18.7	0
16	7321	18.8	0
16	7321	18.9	0
16	7321	19	0
16	7321	19.1	0
16	7321	19.2	0
16	7321	19.3	0
16	7321	19.4	0
16	7321	19.5	0
16	7321	19.6	0
16	7321	19.7	0
16	7321	19.8	0
16	7321	19.9	0
16	7321	20	0
16	7321	20.1	0
16	7321	20.2	0
16	7321	20.3	0
16	7321	20.4	0
16	7321	20.5	0
16	7321	20.6	0
16	7321	20.7	0
16	7321	20.8	0
16	7321	20.9	0
16	7321	21	0
16	7321	21.1	0
16	7321	21.2	0
16	7321	21.3	0
16	7321	21.4	0
16	7321	21.5	0
16	7321	21.6	0
16	7321	21.7	0
16	7321	21.8	0
16	7321	21.9	0
16	7321	22	0
16	7321	22.1	0
16	7321	22.2	0
16	7321	22.3	0
16	7321	22.4	0
16	7321	22.5	0
16	7321	22.6	0
16	7321	22.7	0
16	7321	22.8	0
16	7321	22.9	0
16	7321	23	0
16	7321	23.1	0
16	7321	23.2	0
16	7321	23.3	0
16	7321	23.4	0
16	7321	23.5	0
16	7321	23.6	0
16	7321	23.7	0
16	7321	23.8	0
16	7321	23.9	0
16	7321	24	0
16	7321	24.1	0
16	7321	24.2	0
16	7321	24.3	0
16	7321	24.4	0
16	7321	24.5	0
16	7321	24.6	0
16	7321	24.7	0
16	7321	24.8	0
16	7321	24.9	0
16	7321	25	0
16	7321	25.1	0
16	7321	25.2	0
16	7321	25.3	0
16	7321	25.4	0
16	7321	25.5	0
16	7321	25.6	0
16	7321	25.7	0
16	7321	25.8	0
16	7321	25.9	0
16	7321	26	0
16	7321	26.1	0
16	7321	26.2	0
16	7321	26.3	0
16	7321	26.4	0
16	7321	26.5	0
16	7321	26.6	0
16	7321	26.7	0
16	7321	26.8	0
16	7321	26.9	0
16	7321	27	0
16	7321	27.1	0
16	7321	27.2	0
16	7321	27.3	0
16	7321	27.4	0
16	7321	27.5	0
16	7321	27.6	0
16	7321	27.7	0
16	7321	27.8	0
16	7321	27.9	0
16	7321	28	0
16	7321	28.1	0
16	7321	28.2	0
16	7321	28.3	0
16	7321	28.4	0
16	7321	28.5	0
16	7321	28.6	0
16	7321	28.7	0
16	7321	28.8	0
16	7321	28.9	0
16	7321	29	0
16	7321	29.1	0
16	7321	29.2	0
16	7321	29.3	0
16	7321	29.4	0
16	7321	29.5	0
16	7321	29.6	0
16	7321	29.7	0
16	7321	29.8	0
16	7321	29.9	0
16	7321	30	0
16	7321	30.1	0
16	7321	30.2	0
16	7321	30.3	0
16	7321	30.4	0
16	7321	30.5	0
16	7321	30.6	0
16	7321	30.7	0
16	7321	30.8	0
16	7321	30.9	0
16	7321	31	0
16	7321	31.1	0
16	7321	31.2	0
16	7321	31.3	0
16	7321	31.4	0
16	7321	31.5	0
16	7321	31.6	0
16	7321	31.7	0
16	7321	31.8	0
16	7321	31.9	0
16	7321	32	0
16	7321	32.1	0
16	7321	32.2	0
16	7321	32.3	0
16	7321	32.4	0
16	7321	32.5	0
16	7321	32.6	0
16	7321	32.7	0
16	7321	32.8	0
16	7321	32.9	0
16	7321	33	0
16	7321	33.1	0
16	7321	33.2	0
16	7321	33.3	0
16	7321	33.4	0
16	7321	33.5	0
16	7321	33.6	0
16	7321	33.7	0
16	7321	33.8	0
16	7321	33.9	0
16	7321	34	0
16	7321	34.1	0
16	7321	34.2	0
16	7321	34.3	0
16	7321	34.4	0
16	7321	34.5	0
16	7321	34.6	0
16	7321	34.7	0
16	7321	34.8	0
16	7321	34.9	0
16	7321	35	0
16	7321	35.1	0
16	7321	35.2	0
16	7321	35.3	0
16	7321	35.4	0
16	7321	35.5	0
16	7321	35.6	0
16	7321	35.7	0
16	7321	35.8	0
16	7321	35.9	0
16	7321	36	0
16	7321	36.1	0
16	7321	36.2	0
16	7321	36.3	0
16	7321	36.4	0
16	7321	36.5	0
16	7321	36.6	0
16	7321	36.7	0
16	7321	36.8	0
16	7321	36.9	0
16	7321	37	0
16	7321	37.1	0
16	7321	37.2	0
16	7321	37.3	0
16	7321	37.4	0
16	7321	37.5	0
16	7321	37.6	0
16	7321	37.7	0
16	7321	37.8	0
16	7321	37.9	0
16	7321	38	0
16	7321	38.1	0
16	7321	38.2	0
16	7321	38.3	0
16	7321	38.4	0
16	7321	38.5	0
16	7321	38.6	0
16	7321	38.7	0
16	7321	38.8	0
16	7321	38.9	0
16	7321	39	0
16	7321	39.1	0
16	7321	39.2	0
16	7321	39.3	0
16	7321	39.4	0
16	7321	39.5	0
16	7321	39.6	0
16	7321	39.7	0
16	7321	39.8	0
16	7321	39.9	0
16	7321	40	0
16	7321	40.1	0
16	7321	40.2	0
16	7321	40.3	0
16	7321	40.4	0
16	7321	40.5	0
16	7321	40.6	0
16	7321	40.7	0
16	7321	40.8	0
16	7321	40.9	0
16	7321	41	0
16	7321	41.1	0
16	7321	41.2	0
16	7321	41.3	0
16	7321	41.4	0
16	7321	41.5	0
16	7321	41.6	0
16	7321	41.7	0
16	7321	41.8	0
16	7321	41.9	0
16	7321	42	0
16	7321	42.1	0
16	7321	42.2	0
16	7321	42.3	0
16	7321	42.4	0
16	7321	42.5	0
16	7321	42.6	0
16	7321	42.7	0
16	7321	42.8	0
16	7321	42.9	0
16	7321	43	0
16	7321	43.1	0
16	7321	43.2	0
16	7321	43.3	0
16	7321	43.4	0
16	7321	43.5	0
16	7321	43.6	0
16	7321	43.7	0
16	7321	43.8	0
16	7321	43.9	0
16	7321	44	0
16	7321	44.1	0
16	7321	44.2	0
16	7321	44.3	0
16	7321	44.4	0
16	7321	44.5	0
16	7321	44.6	0
16	7321	44.7	0
16	7321	44.8	0
16	7321	44.9	0
16	7321	45	0
16	7321	45.1	0
16	7321	45.2	0
16	7321	45.3	0
16	7321	45.4	0
16	7321	45.5	0
16	7321	45.6	0
16	7321	45.7	0
16	7321	45.8	0
16	7321	45.9	0
16	7321	46	0
16	7321	46.1	0
16	7321	46.2	0
16	7321	46.3	0
16	7321	46.4	0
16	7321	46.5	0
16	7321	46.6	0
16	7321	46.7	0
16	7321	46.8	0
16	7321	46.9	0
16	7321	47	0
16	7321	47.1	0
16	7321	47.2	0
16	7321	47.3	0
16	7321	47.4	0
16	7321	47.5	0
16	7321	47.6	0
16	7321	47.7	0
16	7321	47.8	0
16	7321	47.9	0
16	7321	48	0
16	7321	48.1	0
16	7321	48.2	0
16	7321	48.3	0
16	7321	48.4	0
16	7321	48.5	0
16	7321	48.6	0
16	7321	48.7	0
16	7321	48.8	0
16	7321	48.9	0
16	7321	49	0
16	7321	49.1	0
16	7321	49.2	0
16	7321	49.3	0
16	7321	49.4	0
16	7321	49.5	0
16	7321	49.6	0
16	7321	49.7	0
16	7321	49.8	0
16	7321	49.9	0
16	7321	50	0
16	7321	50.1	0
16	7321	50.2	0
16	7321	50.3	0
16	7321	50.4	0
16	7321	50.5	0
16	7321	50.6	0
16	7321	50.7	0
16	7321	50.8	0
16	7321	50.9	0
16	7321	51	0
16	7321	51.1	0
16	7321	51.2	0
16	7321	51.3	0
16	7321	51.4	0
16	7321	51.5	0
16	7321	51.6	0
16	7321	51.7	0
16	7321	51.8	0
16	7321	51.9	0
16	7321	52	0
16	7321	52.1	0
16	7321	52.2	0
16	7321	52.3	0
16	7321	52.4	0
16	7321	52.5	0
16	7321	52.6	0
16	7321	52.7	0
16	7321	52.8	0
16	7321	52.9	0
16	7321	53	0
16	7321	53.1	0
16	7321	53.2	0
16	7321	53.3	0
16	7321	53.4	0
16	7321	53.5	0
16	7321	53.6	0
16	7321	53.7	0
16	7321	53.8	0
16	7321	53.9	0
16	7321	54	0
16	7321	54.1	0
16	7321	54.2	0
16	7321	54.3	0
16	7321	54.4	0
16	7321	54.5	0
16	7321	54.6	0
16	7321	54.7	0
16	7321	54.8	0
16	7321	54.9	0
16	7321	55	0
16	7321	55.1	0
16	7321	55.2	0
16	7321	55.3	0
16	7321	55.4	0
16	7321	55.5	0
16	7321	55.6	0
16	7321	55.7	0
16	7321	55.8	0
16	7321	55.9	0
16	7321	56	0
16	7321	56.1	0
16	7321	56.2	0
16	7321	56.3	0
16	7321	56.4	0
16	7321	56.5	0
16	7321	56.6	0
16	7321	56.7	0
16	7321	56.8	0
16	7321	56.9	0
16	7321	57	0
16	7321	57.1	0
16	7321	57.2	0
16	7321	57.3	0
16	7321	57.4	0
16	7321	57.5	0
16	7321	57.6	0
16	7321	57.7	0
16	7321	57.8	0
16	7321	57.9	0
16	7321	58	0
16	7321	58.1	0
16	7321	58.2	0
16	7321	58.3	0
16	7321	58.4	0
16	7321	58.5	0
16	7321	58.6	0
16	7321	58.7	0
16	7321	58.8	0
16	7321	58.9	0
16	7321	59	0
16	7321	59.1	0
16	7321	59.2	0
16	7321	59.3	0
16	7321	59.4	0
16	7321	59.5	0
16	7321	59.6	0
16	7321	59.7	0
16	7321	59.8	0
16	7321	59.9	0
16	7321	60	0
16	7321	60.1	0
16	7321	60.2	0
16	7321	60.3	0
16	7321	60.4	0
16	7321	60.5	0
16	7321	60.6	0
16	7321	60.7	0
16	7321	60.8	0
16	7321	60.9	0
16	7321	61	0
16	7321	61.1	0
16	7321	61.2	0
16	7321	61.3	0
16	7321	61.4	0
16	7321	61.5	0
16	7321	61.6	0
16	7321	61.7	0
16	7321	61.8	0
16	7321	61.9	0
16	7321	62	0
16	7321	62.1	0
16	7321	62.2	0
16	7321	62.3	0
16	7321	62.4	0
16	7321	62.5	0
16	7321	62.6	0
16	7321	62.7	0
16	7321	62.8	0
16	7321	62.9	0
16	7321	63	0
16	7321	63.1	0
16	7321	63.2	0
16	7321	63.3	0
16	7321	63.4	0
16	7321	63.5	0
16	7321	63.6	0
16	7321	63.7	0
16	7321	63.8	0
16	7321	63.9	0
16	7321	64	0
16	7321	64.1	0
16	7321	64.2	0
16	7321	64.3	0
16	7321	64.4	0
16	7321	64.5	0
16	7321	64.6	0
16	7321	64.7	0
16	7321	64.8	0
16	7321	64.9	0
16	7321	65	0
16	7321	65.1	0
16	7321	65.2	0
16	7321	65.3	0
16	7321	65.4	0
16	7321	65.5	0
16	7321	65.6	0
16	7321	65.7	0
16	7321	65.8	0
16	7321	65.9	0
16	7321	66	0
16	7321	66.1	0
16	7321	66.2	0
16	7321	66.3	0
16	7321	66.4	0
16	7321	66.5	0
16	7321	66.6	0
16	7321	66.7	0
16	7321	66.8	0
16	7321	66.9	0
16	7321	67	0
16	7321	67.1	0
16	7321	67.2	0
16	7321	67.3	0
16	7321	67.4	0
16	7321	67.5	0
16	7321	67.6	0
16	7321	67.7	0
16	7321	67.8	0
16	7321	67.9	0
16	7321	68	0
16	7321	68.1	0
16	7321	68.2	0
16	7321	68.3	0
16	7321	68.4	0
16	7321	68.5	0
16	7321	68.6	0
16	7321	68.7	0
16	7321	68.8	0
16	7321	68.9	0
16	7321	69	0
16	7321	69.1	0
16	7321	69.2	0
16	7321	69.3	0
16	7321	69.4	0
16	7321	69.5	0
16	7321	69.6	0
16	7321	69.7	0
16	7321	69.8	0
16	7321	69.9	0
16	7321	70	0
16	7321	70.1	0
16	7321	70.2	0
16	7321	70.3	0
16	7321	70.4	0
16	7321	70.5	0
16	7321	70.6	0
16	7321	70.7	0
16	7321	70.8	0
16	7321	70.9	0
16	7321	71	0
16	7321	71.1	0
16	7321	71.2	0
16	7321	71.3	0
16	7321	71.4	0
16	7321	71.5	0
16	7321	71.6	0
16	7321	71.7	0
16	7321	71.8	0
16	7321	71.9	0
16	7321	72	0
16	7321	72.1	0
16	7321	72.2	0
16	7321	72.3	0
16	7321	72.4	0
16	7321	72.5	0
16	7321	72.6	0
16	7321	72.7	0
16	7321	72.8	0
16	7321	72.9	0
16	7321	73	0
16	7321	73.1	0
16	7321	73.2	0
16	7321	73.3	0
16	7321	73.4	0
16	7321	73.5	0
16	7321	73.6	0
16	7321	73.7	0
16	7321	73.8	0
16	7321	73.9	0
16	7321	74	0
16	7321	74.1	0
16	7321	74.2	0
16	7321	74.3	0
16	7321	74.4	0
16	7321	74.5	0
16	7321	74.6	0
16	7321	74.7	0
16	7321	74.8	0
16	7321	74.9	0
16	7321	75	0
16	7321	75.1	0
16	7321	75.2	0
16	7321	75.3	0
16	7321	75.4	0
16	7321	75.5	0
16	7321	75.6	0
16	7321	75.7	0
16	7321	75.8	0
16	7321	75.9	0
16	7321	76	0
16	7321	76.1	0
16	7321	76.2	0
16	7321	76.3	0
16	7321	76.4	0
16	7321	76.5	0
16	7321	76.6	0
16	7321	76.7	0
16	7321	76.8	0
16	7321	76.9	0
16	7321	77	0
16	7321	77.1	0
16	7321	77.2	0
16	7321	77.3	0
16	7321	77.4	0
16	7321	77.5	0
16	7321	77.6	0
16	7321	77.7	0
16	7321	77.8	0
16	7321	77.9	0
16	7321	78	0
16	7321	78.1	0
16	7321	78.2	0
16	7321	78.3	0
16	7321	78.4	0
16	7321	78.5	0
16	7321	78.6	0
16	7321	78.7	0
16	7321	78.8	0
16	7321	78.9	0
16	7321	79	0
16	7321	79.1	0
16	7321	79.2	0
16	7321	79.3	0
16	7321	79.4	0
16	7321	79.5	0
16	7321	79.6	0
16	7321	79.7	0
16	7321	79.8	0
16	7321	79.9	0
16	7321	80	0
16	7321	80.1	0
16	7321	80.2	0
16	7321	80.3	0
16	7321	80.4	0
16	7321	80.5	0
16	7321	80.6	0
16	7321	80.7	0
16	7321	80.8	0
16	7321	80.9	0
16	7321	81	0
16	7321	81.1	0
16	7321	81.2	0
16	7321	81.3	0
16	7321	81.4	0
16	7321	81.5	0
16	7321	81.6	0
16	7321	81.7	0
16	7321	81.8	0
16	7321	81.9	0
16	7321	82	0
16	7321	82.1	0
16	7321	82.2	0
16	7321	82.3	0
16	7321	82.4	0
16	7321	82.5	0
16	7321	82.6	0
16	7321	82.7	0
16	7321	82.8	0
16	7321	82.9	0
16	7321	83	0
16	7321	83.1	0
16	7321	83.2	0
16	7321	83.3	0
16	7321	83.4	0
16	7321	83.5	0
16	7321	83.6	0
16	7321	83.7	0
16	7321	83.8	0
16	7321	83.9	0
16	7321	84	0
16	7321	84.1	0
16	7321	84.2	0
16	7321	84.3	0
16	7321	84.4	0
16	7321	84.5	0
16	7321	84.6	0
16	7321	84.7	0
16	7321	84.8	0
16	7321	84.9	0
16	7321	85	0
16	7321	85.1	0
16	7321	85.2	0
16	7321	85.3	0
16	7321	85.4	0
16	7321	85.5	0
16	7321	85.6	0
16	7321	85.7	0
16	7321	85.8	0
16	7321	85.9	0
16	7321	86	0
16	7321	86.1	0
16	7321	86.2	0
16	7321	86.3	0
16	7321	86.4	0
16	7321	86.5	0
16	7321	86.6	0
16	7321	86.7	0
16	7321	86.8	0
16	7321	86.9	0
16	7321	87	0
16	7321	87.1	0
16	7321	87.2	0
16	7321	87.3	0
16	7321	87.4	0
16	7321	87.5	0
16	7321	87.6	0
16	7321	87.7	0
16	7321	87.8	0
16	7321	87.9	0
16	7321	88	0
16	7321	88.1	0
16	7321	88.2	0
16	7321	88.3	0
16	7321	88.4	0
16	7321	88.5	0
16	7321	88.6	0
16	7321	88.7	0
16	7321	88.8	0
16	7321	88.9	0
16	7321	89	0
16	7321	89.1	0
16	7321	89.2	0
16	7321	89.3	0
16	7321	89.4	0
16	7321	89.5	0
16	7321	89.6	0
16	7321	89.7	0
16	7321	89.8	0
16	7321	89.9	0
16	7321	90	0
16	7321	90.1	0
16	7321	90.2	0
16	7321	90.3	0
16	7321	90.4	0
16	7321	90.5	0
16	7321	90.6	0
16	7321	90.7	0
16	7321	90.8	0
16	7321	90.9	0
16	7321	91	0
16	7321	91.1	0
16	7321	91.2	0
16	7321	91.3	0
16	7321	91.4	0
16	7321	91.5	0
16	7321	91.6	0
16	7321	91.7	0
16	7321	91.8	0
16	7321	91.9	0
16	7321	92	0
16	7321	92.1	0
16	7321	92.2	0
16	7321	92.3	0
16	7321	92.4	0
16	7321	92.5	0
16	7321	92.6	0
16	7321	92.7	0
16	7321	92.8	0
16	7321	92.9	0
16	7321	93	0
16	7321	93.1	0
16	7321	93.2	0
16	7321	93.3	0
16	7321	93.4	0
16	7321	93.5	0
16	7321	93.6	0
16	7321	93.7	0
16	7321	93.8	0
16	7321	93.9	0
16	7321	94	0
16	7321	94.1	0
16	7321	94.2	0
16	7321	94.3	0
16	7321	94.4	0
16	7321	94.5	0
16	7321	94.6	0
16	7321	94.7	0
16	7321	94.8	0
16	7321	94.9	0
16	7321	95	0
16	7321	95.1	0
16	7321	95.2	0
16	7321	95.3	0
16	7321	95.4	0
16	7321	95.5	0
16	7321	95.6	0
16	7321	95.7	0
16	7321	95.8	0
16	7321	95.9	0
16	7321	96	0
16	7321	96.1	0
16	7321	96.2	0
16	7321	96.3	0
16	7321	96.4	0
16	7321	96.5	0
16	7321	96.6	0
16	7321	96.7	0
16	7321	96.8	0
16	7321	96.9	0
16	7321	97	0
16	7321	97.1	0
16	7321	97.2	0
16	7321	97.3	0
16	7321	97.4	0
16	7321	97.5	0
16	7321	97.6	0
16	7321	97.7	0
16	7321	97.8	0
16	7321	97.9	0
16	7321	98	0
16	7321	98.1	0
16	7321	98.2	0
16	7321	98.3	0
16	7321	98.4	0
16	7321	98.5	0
16	7321	98.6	0
16	7321	98.7	0
16	7321	98.8	0
16	7321	98.9	0
16	7321	99	0
16	7321	99.1	0
16	7321	99.2	0
16	7321	99.3	0
16	7321	99.4	0
16	7321	99.5	0
16	7321	99.6	0
16	7321	99.7	0
16	7321	99.8	0
16	7321	99.9	0
16	7321	100	0
16	7321	100.1	0
16	7321	100.2	0
16	7321	100.3	0
16	7321	100.4	0
16	7321	100.5	0
16	7321	100.6	0
16	7321	100.7	0
16	7321	100.8	0
16	7321	100.9	0
16	7321	101	0
16	7321	101.1	0
16	7321	101.2	0
16	7321	101.3	0
16	7321	101.4	0
16	7321	101.5	0
16	7321	101.6	0
16	7321	101.7	0
16	7321	101.8	0
16	7321	101.9	0
16	7321	102	0
16	7321	102.1	0
16	7321	102.2	0
16	7321	102.3	0
16	7321	102.4	0
16	7321	102.5	0
16	7321	102.6	0
16	7321	102.7	0
16	7321	102.8	0
16	7321	102.9	0
16	7321	103	0
16	7321	103.1	0
16	7321	103.2	0
16	7321	103.3	0
16	7321	103.4	0
16	7321	103.5	0
16	7321	103.6	0
16	7321	103.7	0
16	7321	103.8	0
16	7321	103.9	0
16	7321	104	0
16	7321	104.1	0
16	7321	104.2	0
16	7321	104.3	0
16	7321	104.4	0
16	7321	104.5	0
16	7321	104.6	0
16	7321	104.7	0
16	7321	104.8	0
16	7321	104.9	0
16	7321	105	0
16	7321	105.1	0
16	7321	105.2	0
16	7321	105.3	0
16	7321	105.4	0
16	7321	105.5	0
16	7321	105.6	0
16	7321	105.7	0
16	7321	105.8	0
16	7321	105.9	0
16	7321	106	0
16	7321	106.1	0
16	7321	106.2	0
16	7321	106.3	0
16	7321	106.4	0
16	7321	106.5	0
16	7321	106.6	0
16	7321	106.7	0
16	7321	106.8	0
16	7321	106.9	0
16	7321	107	0
16	7321	107.1	0
16	7321	107.2	0
16	7321	107.3	0
16	7321	107.4	0
16	7321	107.5	0
16	7321	107.6	0
16	7321	107.7	0
16	7321	107.8	0
16	7321	107.9	0
16	7321	108	0
16	7321	108.1	0
16	7321	108.2	0
16	7321	108.3	0
16	7321	108.4	0
16	7321	108.5	0
16	7321	108.6	0
16	7321	108.7	0
16	7321	108.8	0
16	7321	108.9	0
16	7321	109	0
16	7321	109.1	0
16	7321	109.2	0
16	7321	109.3	0
16	7321	109.4	0
16	7321	109.5	0
16	7321	109.6	0
16	7321	109.7	0
16	7321	109.8	0
16	7321	109.9	0
16	7321	110	0
16	7321	110.1	0
16	7321	110.2	0
16	7321	110.3	0
16	7321	110.4	0
16	7321	110.5	0
16	7321	110.6	0
16	7321	110.7	0
16	7321	110.8	0
16	7321	110.9	0
16	7321	111	0
16	7321	111.1	0
16	7321	111.2	0
16	7321	111.3	0
16	7321	111.4	0
16	7321	111.5	0
16	7321	111.6	0
16	7321	111.7	0
16	7321	111.8	0
16	7321	111.9	0
16	7321	112	0
16	7321	112.1	0
16	7321	112.2	0
16	7321	112.3	0
16	7321	112.4	0
16	7321	112.5	0
16	7321	112.6	0
16	7321	112.7	0
16	7321	112.8	0
16	7321	112.9	0
16	7321	113	0
16	7321	113.1	0
16	7321	113.2	0
16	7321	113.3	0
16	7321	113.4	0
16	7321	113.5	0
16	7321	113.6	0
16	7321	113.7	0
16	7321	113.8	0
16	7321	113.9	0
16	7321	114	0
16	7321	114.1	0
16	7321	114.2	0
16	7321	114.3	0
16	7321	114.4	0
16	7321	114.5	0
16	7321	114.6	0
16	7321	114.7	0
16	7321	114.8	0
16	7321	114.9	0
16	7321	115	0
16	7321	115.1	0
16	7321	115.2	0
16	7321	115.3	0
16	7321	115.4	0
16	7321	115.5	0
16	7321	115.6	0
16	7321	115.7	0
16	7321	115.8	0
16	7321	115.9	0
16	7321	116	0
16	7321	116.1	0
16	7321	116.2	0
16	7321	116.3	0
16	7321	116.4	0
16	7321	116.5	0
16	7321	116.6	0
16	7321	116.7	0
16	7321	116.8	0
16	7321	116.9	0
16	7321	117	0
16	7321	117.1	0
16	7321	117.2	0
16	7321	117.3	0
16	7321	117.4	0
16	7321	117.5	0
16	7321	117.6	0
16	7321	117.7	0
16	7321	117.8	0
16	7321	117.9	0
16	7321	118	0
16	7321	118.1	0
16	7321	118.2	0
16	7321	118.3	0
16	7321	118.4	0
16	7321	118.5	0
16	7321	118.6	0
16	7321	118.7	0
16	7321	118.8	0
16	7321	118.9	0
16	7321	119	0
16	7321	119.1	0
16	7321	119.2	0
16	7321	119.3	0
16	7321	119.4	0
16	7321	119.5	0
16	7321	119.6	0
16	7321	119.7	0
16	7321	119.8	0
16	7321	119.9	0
16	7321	120	0
16	7321	120.1	0
16	7321	120.2	0
16	7321	120.3	0
16	7321	120.4	0
16	7321	120.5	0
16	7321	120.6	0
16	7321	120.7	0
16	7321	120.8	0
16	7321	120.9	0
16	7321	121	0
16	7321	121.1	0
16	7321	121.2	0
16	7321	121.3	0
16	7321	121.4	0
16	7321	121.5	0
16	7321	121.6	0
16	7321	121.7	0
16	7321	121.8	0
16	7321	121.9	0
16	7321	122	0
16	7321	122.1	0
16	7321	122.2	0
16	7321	122.3	0
16	7321	122.4	0
16	7321	122.5	0
16	7321	122.6	0
16	7321	122.7	0
16	7321	122.8	0
16	7321	122.9	0
16	7321	123	0
16	7321	123.1	0
16	7321	123.2	0
16	7321	123.3	0
16	7321	123.4	0
16	7321	123.5	0
16	7321	123.6	0
16	7321	123.7	0
16	7321	123.8	0
16	7321	123.9	0
16	7321	124	0
16	7321	124.1	0
16	7321	124.2	0
16	7321	124.3	0
16	7321	124.4	0
16	7321	124.5	0
16	7321	124.6	0
16	7321	124.7	0
16	7321	124.8	0
16	7321	124.9	0
16	7321	125	0
16	7321	125.1	0
16	7321	125.2	0
16	7321	125.3	0
16	7321	125.4	0
16	7321	125.5	0
16	7321	125.6	0
16	7321	125.7	0
16	7321	125.8	0
16	7321	125.9	0
16	7321	126	0
16	7321	126.1	0
16	7321	126.2	0
16	7321	126.3	0
16	7321	126.4	0
16	7321	126.5	0
16	7321	126.6	0
16	7321	126.7	0
16	7321	126.8	0
16	7321	126.9	0
16	7321	127	0
16	7321	127.1	0
16	7321	127.2	0
16	7321	127.3	0
16	7321	127.4	0
16	7321	127.5	0
16	7321	127.6	0
16	7321	127.7	0
16	7321	127.8	0
16	7321	127.9	0
16	7321	128	0
16	7321	128.1	0
16	7321	128.2	0
16	7321	128.3	0
16	7321	128.4	0
16	7321	128.5	0
16	7321	128.6	0
16	7321	128.7	0
16	7321	128.8	0
16	7321	128.9	0
16	7321	129	0
16	7321	129.1	0
16	7321	129.2	0
16	7321	129.3	0
16	7321	129.4	0
16	7321	129.5	0
16	7321	129.6	0
16	7321	129.7	0
16	7321	129.8	0
16	7321	129.9	0
16	7321	130	0
16	7321	130.1	0
16	7321	130.2	0
16	7321	130.3	0
16	7321	130.4	0
16	7321	130.5	0
16	7321	130.6	0
16	7321	130.7	0
16	7321	130.8	0
16	7321	130.9	0
16	7321	131	0
16	7321	131.1	0
16	7321	131.2	0
16	7321	131.3	0
16	7321	131.4	0
16	7321	131.5	0
16	7321	131.6	0
16	7321	131.7	0
16	7321	131.8	0
16	7321	131.9	0
16	7321	132	0
16	7321	132.1	0
16	7321	132.2	0
16	7321	132.3	0
16	7321	132.4	0
16	7321	132.5	0
16	7321	132.6	0
16	7321	132.7	0
16	7321	132.8	0
16	7321	132.9	0
16	7321	133	0
16	7321	133.1	0
16	7321	133.2	0
16	7321	133.3	0
16	7321	133.4	0
16	7321	133.5	0
16	7321	133.6	0
16	7321	133.7	0
16	7321	133.8	0
16	7321	133.9	0
16	7321	134	0
16	7321	134.1	0
16	7321	134.2	0
16	7321	134.3	0
16	7321	134.4	0
16	7321	134.5	0
16	7321	134.6	0
16	7321	134.7	0
16	7321	134.8	0
16	7321	134.9	0
16	7321	135	0
16	7321	135.1	0
16	7321	135.2	0
16	7321	135.3	0
16	7321	135.4	0
16	7321	135.5	0
16	7321	135.6	0
16	7321	135.7	0
16	7321	135.8	0
16	7321	135.9	0
16	7321	136	0
16	7321	136.1	0
16	7321	136.2	0
16	7321	136.3	0
16	7321	136.4	0
16	7321	136.5	0
16	7321	136.6	0
16	7321	136.7	0
16	7321	136.8	0
16	7321	136.9	0
16	7321	137	0
16	7321	137.1	0
16	7321	137.2	0
16	7321	137.3	0
16	7321	137.4	0
16	7321	137.5	0
16	7321	137.6	0
16	7321	137.7	0
16	7321	137.8	0
16	7321	137.9	0
16	7321	138	0
16	7321	138.1	0
16	7321	138.2	0
16	7321	138.3	0
16	7321	138.4	0
16	7321	138.5	0
16	7321	138.6	0
16	7321	138.7	0
16	7321	138.8	0
16	7321	138.9	0
16	7321	139	0
16	7321	139.1	0
16	7321	139.2	0
16	7321	139.3	0
16	7321	139.4	0
16	7321	139.5	0
16	7321	139.6	0
16	7321	139.7	0
16	7321	139.8	0
16	7321	139.9	0
16	7321	140	0
16	7321	140.1	0
16	7321	140.2	0
16	7321	140.3	0
16	7321	140.4	0
16	7321	140.5	0
16	7321	140.6	0
16	7321	140.7	0
16	7321	140.8	0
16	7321	140.9	0
16	7321	141	0
16	7321	141.1	0
16	7321	141.2	0
16	7321	141.3	0
16	7321	141.4	0
16	7321	141.5	0
16	7321	141.6	0
16	7321	141.7	0
16	7321	141.8	0
16	7321	141.9	0
16	7321	142	0
16	7321	142.1	0
16	7321	142.2	0
16	7321	142.3	0
16	7321	142.4	0
16	7321	142.5	0
16	7321	142.6	0
16	7321	142.7	0
16	7321	142.8	0
16	7321	142.9	0
16	7321	143	0
16	7321	143.1	0
16	7321	143.2	0
16	7321	143.3	0
16	7321	143.4	0
16	7321	143.5	0
16	7321	143.6	0
16	7321	143.7	0
16	7321	143.8	0
16	7321	143.9	0
16	7321	144	0
16	7321	144.1	0
16	7321	144.2	0
16	7321	144.3	0
16	7321	144.4	0
16	7321	144.5	0
16	7321	144.6	0
16	7321	144.7	0
16	7321	144.8	0
16	7321	144.9	0
16	7321	145	0
16	7321	145.1	0
16	7321	145.2	0
16	7321	145.3	0
16	7321	145.4	0
16	7321	145.5	0
16	7321	145.6	0
16	7321	145.7	0
16	7321	145.8	0
16	7321	145.9	0
16	7321	146	0
16	7321	146.1	0
16	7321	146.2	0
16	7321	146.3	0
16	7321	146.4	0
16	7321	146.5	0
16	7321	146.6	0
16	7321	146.7	0
16	7321	146.8	0
16	7321	146.9	0
16	7321	147	0
16	7321	147.1	0
16	7321	147.2	0
16	7321	147.3	0
16	7321	147.4	0
16	7321	147.5	0
16	7321	147.6	0
16	7321	147.7	0
16	7321	147.8	0
16	7321	147.9	0
16	7321	148	0
16	7321	148.1	0
16	7321	148.2	0
16	7321	148.3	0
16	7321	148.4	0
16	7321	148.5	0
16	7321	148.6	0
16	7321	148.7	0
16	7321	148.8	0
16	7321	148.9	0
16	7321	149	0
16	7321	149.1	0
16	7321	149.2	0
16	7321	149.3	0
16	7321	149.4	0
16	7321	149.5	0
16	7321	149.6	0
16	7321	149.7	0
16	7321	149.8	0
16	7321	149.9	0
16	7321	150	0
16	7321	150.1	0
16	7321	150.2	0
16	7321	150.3	0
16	7321	150.4	0
16	7321	150.5	0
16	7321	150.6	0
16	7321	150.7	0
16	7321	150.8	0
16	7321	150.9	0
16	7321	151	0
16	7321	151.1	0
16	7321	151.2	0
16	7321	151.3	0
16	7321	151.4	0
16	7321	151.5	0
16	7321	151.6	0
16	7321	151.7	0
16	7321	151.8	0
16	7321	151.9	0
16	7321	152	0
16	7321	152.1	0
16	7321	152.2	0
16	7321	152.3	0
16	7321	152.4	0
16	7321	152.5	0
16	7321	152.6	0
16	7321	152.7	0
16	7321	152.8	0
16	7321	152.9	0
16	7321	153	0
16	7321	153.1	0
16	7321	153.2	0
16	7321	153.3	0
16	7321	153.4	0
16	7321	153.5	0
16	7321	153.6	0
16	7321	153.7	0
16	7321	153.8	0
16	7321	153.9	0
16	7321	154	0
16	7321	154.1	0
16	7321	154.2	0
16	7321	154.3	0
16	7321	154.4	0
16	7321	154.5	0
16	7321	154.6	0
16	7321	154.7	0
16	7321	154.8	0
16	7321	154.9	0
16	7321	155	0
16	7321	155.1	0
16	7321	155.2	0
16	7321	155.3	0
16	7321	155.4	0
16	7321	155.5	0
16	7321	155.6	0
16	7321	155.7	0
16	7321	155.8	0
16	7321	155.9	0
16	7321	156	0
16	7321	156.1	0
16	7321	156.2	0
16	7321	156.3	0
16	7321	156.4	0
16	7321	156.5	0
16	7321	156.6	0
16	7321	156.7	0
16	7321	156.8	0
16	7321	156.9	0
16	7321	157	0
16	7321	157.1	0
16	7321	157.2	0
16	7321	157.3	0
16	7321	157.4	0
16	7321	157.5	0
16	7321	157.6	0
16	7321	157.7	0
16	7321	157.8	0
16	7321	157.9	0
16	7321	158	0
16	7321	158.1	0
16	7321	158.2	0
16	7321	158.3	0
16	7321	158.4	0
16	7321	158.5	0
16	7321	158.6	0
16	7321	158.7	0
16	7321	158.8	0
16	7321	158.9	0
16	7321	159	0
16	7321	159.1	0
16	7321	159.2	0
16	7321	159.3	0
16	7321	159.4	0
16	7321	159.5	0
16	7321	159.6	0
16	7321	159.7	0
16	7321	159.8	0
16	7321	159.9	0
16	7321	160	0
16	7321	160.1	0
16	7321	160.2	0
16	7321	160.3	0
16	7321	160.4	0
16	7321	160.5	0
16	7321	160.6	0
16	7321	160.7	0
16	7321	160.8	0
16	7321	160.9	0
16	7321	161	0
16	7321	161.1	0
16	7321	161.2	0
16	7321	161.3	0
16	7321	161.4	0
16	7321	161.5	0
16	7321	161.6	0
16	7321	161.7	0
16	7321	161.8	0
16	7321	161.9	0
16	7321	162	0
16	7321	162.1	0
16	7321	162.2	0
16	7321	162.3	0
16	7321	162.4	0
16	7321	162.5	0
16	7321	162.6	0
16	7321	162.7	0
16	7321	162.8	0
16	7321	162.9	0
16	7321	163	0
16	7321	163.1	0
16	7321	163.2	0
16	7321	163.3	0
16	7321	163.4	0
16	7321	163.5	0
16	7321	163.6	0
16	7321	163.7	0
16	7321	163.8	0
16	7321	163.9	0
16	7321	164	0
16	7321	164.1	0
16	7321	164.2	0
16	7321	164.3	0
16	7321	164.4	0
16	7321	164.5	0
16	7321	164.6	0
16	7321	164.7	0
16	7321	164.8	0
16	7321	164.9	0
16	7321	165	0
16	7321	165.1	0
16	7321	165.2	0
16	7321	165.3	0
16	7321	165.4	0
16	7321	165.5	0
16	7321	165.6	0
16	7321	165.7	0
16	7321	165.8	0
16	7321	165.9	0
16	7321	166	0
16	7321	166.1	0
16	7321	166.2	0
16	7321	166.3	0
16	7321	166.4	0
16	7321	166.5	0
16	7321	166.6	0
16	7321	166.7	0
16	7321	166.8	0
16	7321	166.9	0
16	7321	167	0
16	7321	167.1	0
16	7321	167.2	0
16	7321	167.3	0
16	7321	167.4	0
16	7321	167.5	0
16	7321	167.6	0
16	7321	167.7	0
16	7321	167.8	0
16	7321	167.9	0
16	7321	168	0
16	7321	168.1	0
16	7321	168.2	0
16	7321	168.3	0
16	7321	168.4	0
16	7321	168.5	0
16	7321	168.6	0
16	7321	168.7	0
16	7321	168.8	0
16	7321	168.9	0
16	7321	169	0
16	7321	169.1	0
16	7321	169.2	0
16	7321	169.3	0
16	7321	169.4	0
16	7321	169.5	0
16	7321	169.6	0
16	7321	169.7	0
16	7321	169.8	0
16	7321	169.9	0
16	7321	170	0
16	7321	170.1	0
16	7321	170.2	0
16	7321	170.3	0
16	7321	170.4	0
16	7321	170.5	0
16	7321	170.6	0
16	7321	170.7	0
16	7321	170.8	0
16	7321	170.9	0
16	7321	171	0
16	7321	171.1	0
16	7321	171.2	0
16	7321	171.3	0
16	7321	171.4	0
16	7321	171.5	0
16	7321	171.6	0
16	7321	171.7	0
16	7321	171.8	0
16	7321	171.9	0
16	7321	172	0
16	7321	172.1	0
16	7321	172.2	0
16	7321	172.3	0
16	7321	172.4	0
16	7321	172.5	0
16	7321	172.6	0
16	7321	172.7	0
16	7321	172.8	0
16	7321	172.9	0
16	7321	173	0
16	7321	173.1	0
16	7321	173.2	0
16	7321	173.3	0
16	7321	173.4	0
16	7321	173.5	0
16	7321	173.6	0
16	7321	173.7	0
16	7321	173.8	0
16	7321	173.9	0
16	7321	174	0
16	7321	174.1	0
16	7321	174.2	0
16	7321	174.3	0
16	7321	174.4	0
16	7321	174.5	0
16	7321	174.6	0
16	7321	174.7	0
16	7321	174.8	0
16	7321	174.9	0
16	7321	175	0
16	7321	175.1	0
16	7321	175.2	0
16	7321	175.3	0
16	7321	175.4	0
16	7321	175.5	0
16	7321	175.6	0
16	7321	175.7	0
16	7321	175.8	0
16	7321	175.9	0
16	7321	176	0
16	7321	176.1	0
16	7321	176.2	0
16	7321	176.3	0
16	7321	176.4	0
16	7321	176.5	0
16	7321	176.6	0
16	7321	176.7	0
16	7321	176.8	0
16	7321	176.9	0
16	7321	177	0
16	7321	177.1	0
16	7321	177.2	0
16	7321	177.3	0
16	7321	177.4	0
16	7321	177.5	0
16	7321	177.6	0
16	7321	177.7	0
16	7321	177.8	0
16	7321	177.9	0
16	7321	178	0
16	7321	178.1	0
16	7321	178.2	0
16	7321	178.3	0
16	7321	178.4	0
16	7321	178.5	0
16	7321	178.6	0
16	7321	178.7	0
16	7321	178.8	0
16	7321	178.9	0
16	7321	179	0
16	7321	179.1	0
16	7321	179.2	0
16	7321	179.3	0
16	7321	179.4	0
16	7321	179.5	0
16	7321	179.6	0
16	7321	179.7	0
16	7321	179.8	0
16	7321	179.9	0
16	7321	180	0
16	7321	180.1	0
16	7321	180.2	0
16	7321	180.3	0
16	7321	180.4	0
16	7321	180.5	0
16	7321	180.6	0
16	7321	180.7	0
16	7321	180.8	0
16	7321	180.9	0
16	7321	181	0
16	7321	181.1	0
16	7321	181.2	0
16	7321	181.3	0
16	7321	181.4	0
16	7321	181.5	0
16	7321	181.6	0
16	7321	181.7	0
16	7321	181.8	0
16	7321	181.9	0
16	7321	182	0
16	7321	182.1	0
16	7321	182.2	0
16	7321	182.3	0
16	7321	182.4	0
16	7321	182.5	0
16	7321	182.6	0
16	7321	182.7	0
16	7321	182.8	0
16	7321	182.9	0
16	7321	183	0
16	7321	183.1	0
16	7321	183.2	0
16	7321	183.3	0
16	7321	183.4	0
16	7321	183.487573691792	0
17	7321	0.1	0
17	7321	0.2	0
17	7321	0.3	0
17	7321	0.4	0
17	7321	0.5	0
17	7321	0.6	0
17	7321	0.7	0
17	7321	0.8	0
17	7321	0.9	0
17	7321	1	0
17	7321	1.1	0
17	7321	1.2	0
17	7321	1.3	0
17	7321	1.4	0
17	7321	1.5	0
17	7321	1.6	0
17	7321	1.7	0
17	7321	1.8	0
17	7321	1.9	0
17	7321	2	0
17	7321	2.1	0
17	7321	2.2	0
17	7321	2.3	0
17	7321	2.4	0
17	7321	2.5	0
17	7321	2.6	0
17	7321	2.7	0
17	7321	2.8	0
17	7321	2.9	0
17	7321	3	0
17	7321	3.1	0
17	7321	3.2	0
17	7321	3.3	0
17	7321	3.4	0
17	7321	3.5	0
17	7321	3.6	0
17	7321	3.7	0
17	7321	3.8	0
17	7321	3.9	0
17	7321	4	0
17	7321	4.1	0
17	7321	4.2	0
17	7321	4.3	0
17	7321	4.4	0
17	7321	4.5	0
17	7321	4.6	0
17	7321	4.7	0
17	7321	4.8	0
17	7321	4.9	0
17	7321	5	0
17	7321	5.1	0
17	7321	5.2	0
17	7321	5.3	0
17	7321	5.4	0
17	7321	5.5	0
17	7321	5.6	0
17	7321	5.7	0
17	7321	5.8	0
17	7321	5.9	0
17	7321	6	0
17	7321	6.1	0
17	7321	6.2	0
17	7321	6.3	0
17	7321	6.4	0
17	7321	6.5	0
17	7321	6.6	0
17	7321	6.7	0
17	7321	6.8	0
17	7321	6.9	0
17	7321	7	0
17	7321	7.1	0
17	7321	7.2	0
17	7321	7.3	0
17	7321	7.4	0
17	7321	7.5	0
17	7321	7.6	0
17	7321	7.7	0
17	7321	7.8	0
17	7321	7.9	0
17	7321	8	0
17	7321	8.1	0
17	7321	8.2	0
17	7321	8.3	0
17	7321	8.4	0
17	7321	8.5	0
17	7321	8.6	0
17	7321	8.7	0
17	7321	8.8	0
17	7321	8.9	0
17	7321	9	0
17	7321	9.1	0
17	7321	9.2	0
17	7321	9.3	0
17	7321	9.4	0
17	7321	9.5	0
17	7321	9.6	0
17	7321	9.7	0
17	7321	9.8	0
17	7321	9.9	0
17	7321	10	0
17	7321	10.1	0
17	7321	10.2	0
17	7321	10.3	0
17	7321	10.4	0
17	7321	10.5	0
17	7321	10.6	0
17	7321	10.7	0
17	7321	10.8	0
17	7321	10.9	0
17	7321	11	0
17	7321	11.1	0
17	7321	11.2	0
17	7321	11.3	0
17	7321	11.4	0
17	7321	11.5	0
17	7321	11.6	0
17	7321	11.7	0
17	7321	11.8	0
17	7321	11.9	0
17	7321	12	0
17	7321	12.1	0
17	7321	12.2	0
17	7321	12.3	0
17	7321	12.4	0
17	7321	12.5	0
17	7321	12.6	0
17	7321	12.7	0
17	7321	12.8	0
17	7321	12.9	0
17	7321	13	0
17	7321	13.1	0
17	7321	13.2	0
17	7321	13.3	0
17	7321	13.4	0
17	7321	13.5	0
17	7321	13.6	0
17	7321	13.7	0
17	7321	13.8	0
17	7321	13.9	0
17	7321	14	0
17	7321	14.1	0
17	7321	14.2	0
17	7321	14.3	0
17	7321	14.4	0
17	7321	14.5	0
17	7321	14.6	0
17	7321	14.7	0
17	7321	14.8	0
17	7321	14.9	0
17	7321	15	0
17	7321	15.1	0
17	7321	15.2	0
17	7321	15.3	0
17	7321	15.4	0
17	7321	15.5	0
17	7321	15.6	0
17	7321	15.7	0
17	7321	15.8	0
17	7321	15.9	0
17	7321	16	0
17	7321	16.1	0
17	7321	16.2	0
17	7321	16.3	0
17	7321	16.4	0
17	7321	16.5	0
17	7321	16.6	0
17	7321	16.7	0
17	7321	16.8	0
17	7321	16.9	0
17	7321	17	0
17	7321	17.1	0
17	7321	17.2	0
17	7321	17.3	0
17	7321	17.4	0
17	7321	17.5	0
17	7321	17.6	0
17	7321	17.7	0
17	7321	17.8	0
17	7321	17.9	0
17	7321	18	0
17	7321	18.1	0
17	7321	18.2	0
17	7321	18.3	0
17	7321	18.4	0
17	7321	18.5	0
17	7321	18.6	0
17	7321	18.7	0
17	7321	18.8	0
17	7321	18.9	0
17	7321	19	0
17	7321	19.1	0
17	7321	19.2	0
17	7321	19.3	0
17	7321	19.4	0
17	7321	19.5	0
17	7321	19.6	0
17	7321	19.7	0
17	7321	19.8	0
17	7321	19.9	0
17	7321	20	0
17	7321	20.1	0
17	7321	20.2	0
17	7321	20.3	0
17	7321	20.4	0
17	7321	20.5	0
17	7321	20.6	0
17	7321	20.7	0
17	7321	20.8	0
17	7321	20.9	0
17	7321	21	0
17	7321	21.1	0
17	7321	21.2	0
17	7321	21.3	0
17	7321	21.4	0
17	7321	21.5	0
17	7321	21.6	0
17	7321	21.7	0
17	7321	21.8	0
17	7321	21.9	0
17	7321	22	0
17	7321	22.1	0
17	7321	22.2	0
17	7321	22.3	0
17	7321	22.4	0
17	7321	22.5	0
17	7321	22.6	0
17	7321	22.7	0
17	7321	22.8	0
17	7321	22.9	0
17	7321	23	0
17	7321	23.1	0
17	7321	23.2	0
17	7321	23.3	0
17	7321	23.4	0
17	7321	23.5	0
17	7321	23.6	0
17	7321	23.7	0
17	7321	23.8	0
17	7321	23.9	0
17	7321	24	0
17	7321	24.1	0
17	7321	24.2	0
17	7321	24.3	0
17	7321	24.4	0
17	7321	24.5	0
17	7321	24.6	0
17	7321	24.7	0
17	7321	24.8	0
17	7321	24.9	0
17	7321	25	0
17	7321	25.1	0
17	7321	25.2	0
17	7321	25.3	0
17	7321	25.4	0
17	7321	25.5	0
17	7321	25.6	0
17	7321	25.7	0
17	7321	25.8	0
17	7321	25.9	0
17	7321	26	0
17	7321	26.1	0
17	7321	26.2	0
17	7321	26.3	0
17	7321	26.4	0
17	7321	26.5	0
17	7321	26.6	0
17	7321	26.7	0
17	7321	26.8	0
17	7321	26.9	0
17	7321	27	0
17	7321	27.1	0
17	7321	27.2	0
17	7321	27.3	0
17	7321	27.4	0
17	7321	27.5	0
17	7321	27.6	0
17	7321	27.7	0
17	7321	27.8	0
17	7321	27.9	0
17	7321	28	0
17	7321	28.1	0
17	7321	28.2	0
17	7321	28.3	0
17	7321	28.4	0
17	7321	28.5	0
17	7321	28.6	0
17	7321	28.7	0
17	7321	28.8	0
17	7321	28.9	0
17	7321	29	0
17	7321	29.1	0
17	7321	29.2	0
17	7321	29.3	0
17	7321	29.4	0
17	7321	29.5	0
17	7321	29.6	0
17	7321	29.7	0
17	7321	29.8	0
17	7321	29.9	0
17	7321	30	0
17	7321	30.1	0
17	7321	30.2	0
17	7321	30.3	0
17	7321	30.4	0
17	7321	30.5	0
17	7321	30.6	0
17	7321	30.7	0
17	7321	30.8	0
17	7321	30.9	0
17	7321	31	0
17	7321	31.1	0
17	7321	31.2	0
17	7321	31.3	0
17	7321	31.4	0
17	7321	31.5	0
17	7321	31.6	0
17	7321	31.7	0
17	7321	31.8	0
17	7321	31.9	0
17	7321	32	0
17	7321	32.1	0
17	7321	32.2	0
17	7321	32.3	0
17	7321	32.4	0
17	7321	32.5	0
17	7321	32.6	0
17	7321	32.7	0
17	7321	32.8	0
17	7321	32.9	0
17	7321	33	0
17	7321	33.1	0
17	7321	33.2	0
17	7321	33.3	0
17	7321	33.4	0
17	7321	33.5	0
17	7321	33.6	0
17	7321	33.7	0
17	7321	33.8	0
17	7321	33.9	0
17	7321	34	0
17	7321	34.1	0
17	7321	34.2	0
17	7321	34.3	0
17	7321	34.4	0
17	7321	34.5	0
17	7321	34.6	0
17	7321	34.7	0
17	7321	34.8	0
17	7321	34.9	0
17	7321	35	0
17	7321	35.1	0
17	7321	35.2	0
17	7321	35.3	0
17	7321	35.4	0
17	7321	35.5	0
17	7321	35.6	0
17	7321	35.7	0
17	7321	35.8	0
17	7321	35.9	0
17	7321	36	0
17	7321	36.1	0
17	7321	36.2	0
17	7321	36.3	0
17	7321	36.4	0
17	7321	36.5	0
17	7321	36.6	0
17	7321	36.7	0
17	7321	36.8	0
17	7321	36.9	0
17	7321	37	0
17	7321	37.1	0
17	7321	37.2	0
17	7321	37.3	0
17	7321	37.4	0
17	7321	37.5	0
17	7321	37.6	0
17	7321	37.7	0
17	7321	37.8	0
17	7321	37.9	0
17	7321	38	0
17	7321	38.1	0
17	7321	38.2	0
17	7321	38.3	0
17	7321	38.4	0
17	7321	38.5	0
17	7321	38.6	0
17	7321	38.7	0
17	7321	38.8	0
17	7321	38.9	0
17	7321	39	0
17	7321	39.1	0
17	7321	39.2	0
17	7321	39.3	0
17	7321	39.4	0
17	7321	39.5	0
17	7321	39.6	0
17	7321	39.7	0
17	7321	39.8	0
17	7321	39.9	0
17	7321	40	0
17	7321	40.1	0
17	7321	40.2	0
17	7321	40.3	0
17	7321	40.4	0
17	7321	40.5	0
17	7321	40.6	0
17	7321	40.7	0
17	7321	40.8	0
17	7321	40.9	0
17	7321	41	0
17	7321	41.1	0
17	7321	41.2	0
17	7321	41.3	0
17	7321	41.4	0
17	7321	41.5	0
17	7321	41.6	0
17	7321	41.7	0
17	7321	41.8	0
17	7321	41.9	0
17	7321	42	0
17	7321	42.1	0
17	7321	42.2	0
17	7321	42.3	0
17	7321	42.4	0
17	7321	42.5	0
17	7321	42.6	0
17	7321	42.7	0
17	7321	42.8	0
17	7321	42.9	0
17	7321	43	0
17	7321	43.1	0
17	7321	43.2	0
17	7321	43.3	0
17	7321	43.4	0
17	7321	43.5	0
17	7321	43.6	0
17	7321	43.7	0
17	7321	43.8	0
17	7321	43.9	0
17	7321	44	0
17	7321	44.1	0
17	7321	44.2	0
17	7321	44.3	0
17	7321	44.4	0
17	7321	44.5	0
17	7321	44.6	0
17	7321	44.7	0
17	7321	44.8	0
17	7321	44.9	0
17	7321	45	0
17	7321	45.1	0
17	7321	45.2	0
17	7321	45.3	0
17	7321	45.4	0
17	7321	45.5	0
17	7321	45.6	0
17	7321	45.7	0
17	7321	45.8	0
17	7321	45.9	0
17	7321	46	0
17	7321	46.1	0
17	7321	46.2	0
17	7321	46.3	0
17	7321	46.4	0
17	7321	46.5	0
17	7321	46.6	0
17	7321	46.7	0
17	7321	46.8	0
17	7321	46.9	0
17	7321	47	0
17	7321	47.1	0
17	7321	47.2	0
17	7321	47.3	0
17	7321	47.4	0
17	7321	47.5	0
17	7321	47.6	0
17	7321	47.7	0
17	7321	47.8	0
17	7321	47.9	0
17	7321	48	0
17	7321	48.1	0
17	7321	48.2	0
17	7321	48.3	0
17	7321	48.4	0
17	7321	48.5	0
17	7321	48.6	0
17	7321	48.7	0
17	7321	48.8	0
17	7321	48.9	0
17	7321	49	0
17	7321	49.1	0
17	7321	49.2	0
17	7321	49.3	0
17	7321	49.4	0
17	7321	49.5	0
17	7321	49.6	0
17	7321	49.7	0
17	7321	49.8	0
17	7321	49.9	0
17	7321	50	0
17	7321	50.1	0
17	7321	50.2	0
17	7321	50.3	0
17	7321	50.4	0
17	7321	50.5	0
17	7321	50.6	0
17	7321	50.7	0
17	7321	50.8	0
17	7321	50.9	0
17	7321	51	0
17	7321	51.1	0
17	7321	51.2	0
17	7321	51.3	0
17	7321	51.4	0
17	7321	51.5	0
17	7321	51.6	0
17	7321	51.7	0
17	7321	51.8	0
17	7321	51.9	0
17	7321	52	0
17	7321	52.1	0
17	7321	52.2	0
17	7321	52.3	0
17	7321	52.4	0
17	7321	52.5	0
17	7321	52.6	0
17	7321	52.7	0
17	7321	52.8	0
17	7321	52.9	0
17	7321	53	0
17	7321	53.1	0
17	7321	53.2	0
17	7321	53.3	0
17	7321	53.4	0
17	7321	53.5	0
17	7321	53.6	0
17	7321	53.7	0
17	7321	53.8	0
17	7321	53.9	0
17	7321	54	0
17	7321	54.1	0
17	7321	54.2	0
17	7321	54.3	0
17	7321	54.4	0
17	7321	54.5	0
17	7321	54.6	0
17	7321	54.7	0
17	7321	54.8	0
17	7321	54.9	0
17	7321	55	0
17	7321	55.1	0
17	7321	55.2	0
17	7321	55.3	0
17	7321	55.4	0
17	7321	55.5	0
17	7321	55.6	0
17	7321	55.7	0
17	7321	55.8	0
17	7321	55.9	0
17	7321	56	0
17	7321	56.1	0
17	7321	56.2	0
17	7321	56.3	0
17	7321	56.4	0
17	7321	56.5	0
17	7321	56.6	0
17	7321	56.7	0
17	7321	56.8	0
17	7321	56.9	0
17	7321	57	0
17	7321	57.1	0
17	7321	57.2	0
17	7321	57.3	0
17	7321	57.4	0
17	7321	57.5	0
17	7321	57.6	0
17	7321	57.7	0
17	7321	57.8	0
17	7321	57.9	0
17	7321	58	0
17	7321	58.1	0
17	7321	58.2	0
17	7321	58.3	0
17	7321	58.4	0
17	7321	58.5	0
17	7321	58.6	0
17	7321	58.7	0
17	7321	58.8	0
17	7321	58.9	0
17	7321	59	0
17	7321	59.1	0
17	7321	59.2	0
17	7321	59.3	0
17	7321	59.4	0
17	7321	59.5	0
17	7321	59.6	0
17	7321	59.7	0
17	7321	59.8	0
17	7321	59.9	0
17	7321	60	0
17	7321	60.1	0
17	7321	60.2	0
17	7321	60.3	0
17	7321	60.4	0
17	7321	60.5	0
17	7321	60.6	0
17	7321	60.7	0
17	7321	60.8	0
17	7321	60.9	0
17	7321	61	0
17	7321	61.1	0
17	7321	61.2	0
17	7321	61.3	0
17	7321	61.4	0
17	7321	61.5	0
17	7321	61.6	0
17	7321	61.7	0
17	7321	61.8	0
17	7321	61.9	0
17	7321	62	0
17	7321	62.1	0
17	7321	62.2	0
17	7321	62.3	0
17	7321	62.4	0
17	7321	62.5	0
17	7321	62.6	0
17	7321	62.7	0
17	7321	62.8	0
17	7321	62.9	0
17	7321	63	0
17	7321	63.1	0
17	7321	63.2	0
17	7321	63.3	0
17	7321	63.4	0
17	7321	63.5	0
17	7321	63.6	0
17	7321	63.7	0
17	7321	63.8	0
17	7321	63.9	0
17	7321	64	0
17	7321	64.1	0
17	7321	64.2	0
17	7321	64.3	0
17	7321	64.4	0
17	7321	64.5	0
17	7321	64.6	0
17	7321	64.7	0
17	7321	64.8	0
17	7321	64.9	0
17	7321	65	0
17	7321	65.1	0
17	7321	65.2	0
17	7321	65.3	0
17	7321	65.4	0
17	7321	65.5	0
17	7321	65.6	0
17	7321	65.7	0
17	7321	65.8	0
17	7321	65.9	0
17	7321	66	0
17	7321	66.1	0
17	7321	66.2	0
17	7321	66.3	0
17	7321	66.4	0
17	7321	66.5	0
17	7321	66.6	0
17	7321	66.7	0
17	7321	66.8	0
17	7321	66.9	0
17	7321	67	0
17	7321	67.1	0
17	7321	67.2	0
17	7321	67.3	0
17	7321	67.4	0
17	7321	67.5	0
17	7321	67.6	0
17	7321	67.7	0
17	7321	67.8	0
17	7321	67.9	0
17	7321	68	0
17	7321	68.1	0
17	7321	68.2	0
17	7321	68.3	0
17	7321	68.4	0
17	7321	68.5	0
17	7321	68.6	0
17	7321	68.7	0
17	7321	68.8	0
17	7321	68.9	0
17	7321	69	0
17	7321	69.1	0
17	7321	69.2	0
17	7321	69.3	0
17	7321	69.4	0
17	7321	69.5	0
17	7321	69.6	0
17	7321	69.7	0
17	7321	69.8	0
17	7321	69.9	0
17	7321	70	0
17	7321	70.1	0
17	7321	70.2	0
17	7321	70.3	0
17	7321	70.4	0
17	7321	70.5	0
17	7321	70.6	0
17	7321	70.7	0
17	7321	70.8	0
17	7321	70.9	0
17	7321	71	0
17	7321	71.1	0
17	7321	71.2	0
17	7321	71.3	0
17	7321	71.4	0
17	7321	71.5	0
17	7321	71.6	0
17	7321	71.7	0
17	7321	71.8	0
17	7321	71.9	0
17	7321	72	0
17	7321	72.1	0
17	7321	72.2	0
17	7321	72.3	0
17	7321	72.4	0
17	7321	72.5	0
17	7321	72.6	0
17	7321	72.7	0
17	7321	72.8	0
17	7321	72.9	0
17	7321	73	0
17	7321	73.1	0
17	7321	73.2	0
17	7321	73.3	0
17	7321	73.4	0
17	7321	73.5	0
17	7321	73.6	0
17	7321	73.7	0
17	7321	73.8	0
17	7321	73.9	0
17	7321	74	0
17	7321	74.1	0
17	7321	74.2	0
17	7321	74.3	0
17	7321	74.4	0
17	7321	74.5	0
17	7321	74.6	0
17	7321	74.7	0
17	7321	74.8	0
17	7321	74.9	0
17	7321	75	0
17	7321	75.1	0
17	7321	75.2	0
17	7321	75.3	0
17	7321	75.4	0
17	7321	75.5	0
17	7321	75.6	0
17	7321	75.7	0
17	7321	75.8	0
17	7321	75.9	0
17	7321	76	0
17	7321	76.1	0
17	7321	76.2	0
17	7321	76.3	0
17	7321	76.4	0
17	7321	76.5	0
17	7321	76.6	0
17	7321	76.7	0
17	7321	76.8	0
17	7321	76.9	0
17	7321	77	0
17	7321	77.1	0
17	7321	77.2	0
17	7321	77.3	0
17	7321	77.4	0
17	7321	77.5	0
17	7321	77.6	0
17	7321	77.7	0
17	7321	77.8	0
17	7321	77.9	0
17	7321	78	0
17	7321	78.1	0
17	7321	78.2	0
17	7321	78.3	0
17	7321	78.4	0
17	7321	78.5	0
17	7321	78.6	0
17	7321	78.7	0
17	7321	78.8	0
17	7321	78.9	0
17	7321	79	0
17	7321	79.1	0
17	7321	79.2	0
17	7321	79.3	0
17	7321	79.4	0
17	7321	79.5	0
17	7321	79.6	0
17	7321	79.7	0
17	7321	79.8	0
17	7321	79.9	0
17	7321	80	0
17	7321	80.1	0
17	7321	80.2	0
17	7321	80.3	0
17	7321	80.4	0
17	7321	80.5	0
17	7321	80.6	0
17	7321	80.7	0
17	7321	80.8	0
17	7321	80.9	0
17	7321	81	0
17	7321	81.1	0
17	7321	81.2	0
17	7321	81.3	0
17	7321	81.4	0
17	7321	81.5	0
17	7321	81.6	0
17	7321	81.7	0
17	7321	81.8	0
17	7321	81.9	0
17	7321	82	0
17	7321	82.1	0
17	7321	82.2	0
17	7321	82.3	0
17	7321	82.4	0
17	7321	82.5	0
17	7321	82.6	0
17	7321	82.7	0
17	7321	82.8	0
17	7321	82.9	0
17	7321	83	0
17	7321	83.1	0
17	7321	83.2	0
17	7321	83.3	0
17	7321	83.4	0
17	7321	83.5	0
17	7321	83.6	0
17	7321	83.7	0
17	7321	83.8	0
17	7321	83.9	0
17	7321	84	0
17	7321	84.1	0
17	7321	84.2	0
17	7321	84.3	0
17	7321	84.4	0
17	7321	84.5	0
17	7321	84.6	0
17	7321	84.7	0
17	7321	84.8	0
17	7321	84.9	0
17	7321	85	0
17	7321	85.1	0
17	7321	85.2	0
17	7321	85.3	0
17	7321	85.4	0
17	7321	85.5	0
17	7321	85.6	0
17	7321	85.7	0
17	7321	85.8	0
17	7321	85.9	0
17	7321	86	0
17	7321	86.1	0
17	7321	86.2	0
17	7321	86.3	0
17	7321	86.4	0
17	7321	86.5	0
17	7321	86.6	0
17	7321	86.7	0
17	7321	86.8	0
17	7321	86.9	0
17	7321	87	0
17	7321	87.1	0
17	7321	87.2	0
17	7321	87.3	0
17	7321	87.4	0
17	7321	87.5	0
17	7321	87.6	0
17	7321	87.7	0
17	7321	87.8	0
17	7321	87.9	0
17	7321	88	0
17	7321	88.1	0
17	7321	88.2	0
17	7321	88.3	0
17	7321	88.4	0
17	7321	88.5	0
17	7321	88.6	0
17	7321	88.7	0
17	7321	88.8	0
17	7321	88.9	0
17	7321	89	0
17	7321	89.1	0
17	7321	89.2	0
17	7321	89.3	0
17	7321	89.4	0
17	7321	89.5	0
17	7321	89.6	0
17	7321	89.7	0
17	7321	89.8	0
17	7321	89.9	0
17	7321	90	0
17	7321	90.1	0
17	7321	90.2	0
17	7321	90.3	0
17	7321	90.4	0
17	7321	90.5	0
17	7321	90.6	0
17	7321	90.7	0
17	7321	90.8	0
17	7321	90.9	0
17	7321	91	0
17	7321	91.1	0
17	7321	91.2	0
17	7321	91.3	0
17	7321	91.4	0
17	7321	91.5	0
17	7321	91.6	0
17	7321	91.7	0
17	7321	91.8	0
17	7321	91.9	0
17	7321	92	0
17	7321	92.1	0
17	7321	92.2	0
17	7321	92.3	0
17	7321	92.4	0
17	7321	92.5	0
17	7321	92.6	0
17	7321	92.7	0
17	7321	92.8	0
17	7321	92.9	0
17	7321	93	0
17	7321	93.1	0
17	7321	93.2	0
17	7321	93.3	0
17	7321	93.4	0
17	7321	93.5	0
17	7321	93.6	0
17	7321	93.7	0
17	7321	93.8	0
17	7321	93.9	0
17	7321	94	0
17	7321	94.1	0
17	7321	94.2	0
17	7321	94.3	0
17	7321	94.4	0
17	7321	94.5	0
17	7321	94.6	0
17	7321	94.7	0
17	7321	94.8	0
17	7321	94.9	0
17	7321	95	0
17	7321	95.1	0
17	7321	95.2	0
17	7321	95.3	0
17	7321	95.4	0
17	7321	95.5	0
17	7321	95.6	0
17	7321	95.7	0
17	7321	95.8	0
17	7321	95.9	0
17	7321	96	0
17	7321	96.1	0
17	7321	96.2	0
17	7321	96.3	0
17	7321	96.4	0
17	7321	96.5	0
17	7321	96.6	0
17	7321	96.7	0
17	7321	96.8	0
17	7321	96.9	0
17	7321	97	0
17	7321	97.1	0
17	7321	97.2	0
17	7321	97.3	0
17	7321	97.4	0
17	7321	97.5	0
17	7321	97.6	0
17	7321	97.7	0
17	7321	97.8	0
17	7321	97.9	0
17	7321	98	0
17	7321	98.1	0
17	7321	98.2	0
17	7321	98.3	0
17	7321	98.4	0
17	7321	98.5	0
17	7321	98.6	0
17	7321	98.7	0
17	7321	98.8	0
17	7321	98.9	0
17	7321	99	0
17	7321	99.1	0
17	7321	99.2	0
17	7321	99.3	0
17	7321	99.4	0
17	7321	99.5	0
17	7321	99.6	0
17	7321	99.7	0
17	7321	99.8	0
17	7321	99.9	0
17	7321	100	0
17	7321	100.1	0
17	7321	100.2	0
17	7321	100.3	0
17	7321	100.4	0
17	7321	100.5	0
17	7321	100.6	0
17	7321	100.7	0
17	7321	100.8	0
17	7321	100.9	0
17	7321	101	0
17	7321	101.1	0
17	7321	101.2	0
17	7321	101.3	0
17	7321	101.4	0
17	7321	101.5	0
17	7321	101.6	0
17	7321	101.7	0
17	7321	101.8	0
17	7321	101.9	0
17	7321	102	0
17	7321	102.1	0
17	7321	102.2	0
17	7321	102.3	0
17	7321	102.4	0
17	7321	102.5	0
17	7321	102.6	0
17	7321	102.7	0
17	7321	102.8	0
17	7321	102.9	0
17	7321	103	0
17	7321	103.1	0
17	7321	103.2	0
17	7321	103.3	0
17	7321	103.4	0
17	7321	103.5	0
17	7321	103.6	0
17	7321	103.7	0
17	7321	103.8	0
17	7321	103.9	0
17	7321	104	0
17	7321	104.1	0
17	7321	104.2	0
17	7321	104.3	0
17	7321	104.4	0
17	7321	104.5	0
17	7321	104.6	0
17	7321	104.7	0
17	7321	104.8	0
17	7321	104.9	0
17	7321	105	0
17	7321	105.1	0
17	7321	105.2	0
17	7321	105.3	0
17	7321	105.4	0
17	7321	105.5	0
17	7321	105.6	0
17	7321	105.7	0
17	7321	105.8	0
17	7321	105.9	0
17	7321	106	0
17	7321	106.1	0
17	7321	106.2	0
17	7321	106.3	0
17	7321	106.4	0
17	7321	106.5	0
17	7321	106.6	0
17	7321	106.7	0
17	7321	106.8	0
17	7321	106.9	0
17	7321	107	0
17	7321	107.1	0
17	7321	107.2	0
17	7321	107.3	0
17	7321	107.4	0
17	7321	107.5	0
17	7321	107.6	0
17	7321	107.7	0
17	7321	107.8	0
17	7321	107.9	0
17	7321	108	0
17	7321	108.1	0
17	7321	108.2	0
17	7321	108.3	0
17	7321	108.4	0
17	7321	108.5	0
17	7321	108.6	0
17	7321	108.7	0
17	7321	108.8	0
17	7321	108.9	0
17	7321	109	0
17	7321	109.1	0
17	7321	109.2	0
17	7321	109.3	0
17	7321	109.4	0
17	7321	109.5	0
17	7321	109.6	0
17	7321	109.7	0
17	7321	109.8	0
17	7321	109.9	0
17	7321	110	0
17	7321	110.1	0
17	7321	110.2	0
17	7321	110.3	0
17	7321	110.4	0
17	7321	110.5	0
17	7321	110.6	0
17	7321	110.7	0
17	7321	110.8	0
17	7321	110.9	0
17	7321	111	0
17	7321	111.1	0
17	7321	111.2	0
17	7321	111.3	0
17	7321	111.4	0
17	7321	111.5	0
17	7321	111.6	0
17	7321	111.7	0
17	7321	111.8	0
17	7321	111.9	0
17	7321	112	0
17	7321	112.1	0
17	7321	112.2	0
17	7321	112.3	0
17	7321	112.4	0
17	7321	112.5	0
17	7321	112.6	0
17	7321	112.7	0
17	7321	112.8	0
17	7321	112.9	0
17	7321	113	0
17	7321	113.1	0
17	7321	113.2	0
17	7321	113.3	0
17	7321	113.4	0
17	7321	113.5	0
17	7321	113.6	0
17	7321	113.7	0
17	7321	113.8	0
17	7321	113.9	0
17	7321	114	0
17	7321	114.1	0
17	7321	114.2	0
17	7321	114.3	0
17	7321	114.4	0
17	7321	114.5	0
17	7321	114.6	0
17	7321	114.7	0
17	7321	114.8	0
17	7321	114.9	0
17	7321	115	0
17	7321	115.1	0
17	7321	115.2	0
17	7321	115.3	0
17	7321	115.4	0
17	7321	115.5	0
17	7321	115.6	0
17	7321	115.7	0
17	7321	115.8	0
17	7321	115.9	0
17	7321	116	0
17	7321	116.1	0
17	7321	116.2	0
17	7321	116.3	0
17	7321	116.4	0
17	7321	116.5	0
17	7321	116.6	0
17	7321	116.7	0
17	7321	116.8	0
17	7321	116.9	0
17	7321	117	0
17	7321	117.1	0
17	7321	117.2	0
17	7321	117.3	0
17	7321	117.4	0
17	7321	117.5	0
17	7321	117.6	0
17	7321	117.7	0
17	7321	117.8	0
17	7321	117.9	0
17	7321	118	0
17	7321	118.1	0
17	7321	118.2	0
17	7321	118.3	0
17	7321	118.4	0
17	7321	118.5	0
17	7321	118.6	0
17	7321	118.7	0
17	7321	118.8	0
17	7321	118.9	0
17	7321	119	0
17	7321	119.1	0
17	7321	119.2	0
17	7321	119.3	0
17	7321	119.4	0
17	7321	119.5	0
17	7321	119.6	0
17	7321	119.7	0
17	7321	119.8	0
17	7321	119.9	0
17	7321	120	0
17	7321	120.1	0
17	7321	120.2	0
17	7321	120.3	0
17	7321	120.4	0
17	7321	120.5	0
17	7321	120.6	0
17	7321	120.7	0
17	7321	120.8	0
17	7321	120.9	0
17	7321	121	0
17	7321	121.1	0
17	7321	121.2	0
17	7321	121.3	0
17	7321	121.4	0
17	7321	121.5	0
17	7321	121.6	0
17	7321	121.7	0
17	7321	121.8	0
17	7321	121.9	0
17	7321	122	0
17	7321	122.1	0
17	7321	122.2	0
17	7321	122.3	0
17	7321	122.4	0
17	7321	122.5	0
17	7321	122.6	0
17	7321	122.7	0
17	7321	122.8	0
17	7321	122.9	0
17	7321	123	0
17	7321	123.1	0
17	7321	123.2	0
17	7321	123.3	0
17	7321	123.4	0
17	7321	123.5	0
17	7321	123.6	0
17	7321	123.7	0
17	7321	123.8	0
17	7321	123.9	0
17	7321	124	0
17	7321	124.1	0
17	7321	124.2	0
17	7321	124.3	0
17	7321	124.4	0
17	7321	124.5	0
17	7321	124.6	0
17	7321	124.7	0
17	7321	124.8	0
17	7321	124.9	0
17	7321	125	0
17	7321	125.1	0
17	7321	125.2	0
17	7321	125.3	0
17	7321	125.4	0
17	7321	125.5	0
17	7321	125.6	0
17	7321	125.7	0
17	7321	125.8	0
17	7321	125.9	0
17	7321	126	0
17	7321	126.1	0
17	7321	126.2	0
17	7321	126.3	0
17	7321	126.4	0
17	7321	126.5	0
17	7321	126.6	0
17	7321	126.7	0
17	7321	126.8	0
17	7321	126.9	0
17	7321	127	0
17	7321	127.1	0
17	7321	127.2	0
17	7321	127.3	0
17	7321	127.4	0
17	7321	127.5	0
17	7321	127.6	0
17	7321	127.7	0
17	7321	127.8	0
17	7321	127.9	0
17	7321	128	0
17	7321	128.1	0
17	7321	128.2	0
17	7321	128.3	0
17	7321	128.4	0
17	7321	128.5	0
17	7321	128.6	0
17	7321	128.7	0
17	7321	128.8	0
17	7321	128.9	0
17	7321	129	0
17	7321	129.1	0
17	7321	129.2	0
17	7321	129.3	0
17	7321	129.4	0
17	7321	129.5	0
17	7321	129.6	0
17	7321	129.7	0
17	7321	129.8	0
17	7321	129.9	0
17	7321	130	0
17	7321	130.1	0
17	7321	130.2	0
17	7321	130.3	0
17	7321	130.4	0
17	7321	130.5	0
17	7321	130.6	0
17	7321	130.7	0
17	7321	130.8	0
17	7321	130.9	0
17	7321	131	0
17	7321	131.1	0
17	7321	131.2	0
17	7321	131.3	0
17	7321	131.4	0
17	7321	131.5	0
17	7321	131.6	0
17	7321	131.7	0
17	7321	131.8	0
17	7321	131.9	0
17	7321	132	0
17	7321	132.1	0
17	7321	132.2	0
17	7321	132.3	0
17	7321	132.4	0
17	7321	132.5	0
17	7321	132.6	0
17	7321	132.7	0
17	7321	132.8	0
17	7321	132.9	0
17	7321	133	0
17	7321	133.1	0
17	7321	133.2	0
17	7321	133.3	0
17	7321	133.4	0
17	7321	133.5	0
17	7321	133.6	0
17	7321	133.7	0
17	7321	133.8	0
17	7321	133.9	0
17	7321	134	0
17	7321	134.1	0
17	7321	134.2	0
17	7321	134.3	0
17	7321	134.4	0
17	7321	134.5	0
17	7321	134.6	0
17	7321	134.7	0
17	7321	134.8	0
17	7321	134.9	0
17	7321	135	0
17	7321	135.1	0
17	7321	135.2	0
17	7321	135.3	0
17	7321	135.4	0
17	7321	135.5	0
17	7321	135.6	0
17	7321	135.7	0
17	7321	135.8	0
17	7321	135.9	0
17	7321	136	0
17	7321	136.1	0
17	7321	136.2	0
17	7321	136.3	0
17	7321	136.4	0
17	7321	136.5	0
17	7321	136.6	0
17	7321	136.7	0
17	7321	136.8	0
17	7321	136.9	0
17	7321	137	0
17	7321	137.1	0
17	7321	137.2	0
17	7321	137.3	0
17	7321	137.4	0
17	7321	137.5	0
17	7321	137.6	0
17	7321	137.7	0
17	7321	137.8	0
17	7321	137.9	0
17	7321	138	0
17	7321	138.1	0
17	7321	138.2	0
17	7321	138.3	0
17	7321	138.4	0
17	7321	138.5	0
17	7321	138.6	0
17	7321	138.7	0
17	7321	138.8	0
17	7321	138.9	0
17	7321	139	0
17	7321	139.1	0
17	7321	139.2	0
17	7321	139.3	0
17	7321	139.4	0
17	7321	139.5	0
17	7321	139.6	0
17	7321	139.7	0
17	7321	139.8	0
17	7321	139.9	0
17	7321	140	0
17	7321	140.1	0
17	7321	140.2	0
17	7321	140.3	0
17	7321	140.4	0
17	7321	140.5	0
17	7321	140.6	0
17	7321	140.7	0
17	7321	140.8	0
17	7321	140.9	0
17	7321	141	0
17	7321	141.1	0
17	7321	141.2	0
17	7321	141.3	0
17	7321	141.4	0
17	7321	141.5	0
17	7321	141.6	0
17	7321	141.7	0
17	7321	141.8	0
17	7321	141.9	0
17	7321	142	0
17	7321	142.1	0
17	7321	142.2	0
17	7321	142.3	0
17	7321	142.4	0
17	7321	142.5	0
17	7321	142.6	0
17	7321	142.7	0
17	7321	142.8	0
17	7321	142.9	0
17	7321	143	0
17	7321	143.1	0
17	7321	143.2	0
17	7321	143.3	0
17	7321	143.4	0
17	7321	143.5	0
17	7321	143.6	0
17	7321	143.7	0
17	7321	143.8	0
17	7321	143.9	0
17	7321	144	0
17	7321	144.1	0
17	7321	144.2	0
17	7321	144.3	0
17	7321	144.4	0
17	7321	144.5	0
17	7321	144.6	0
17	7321	144.7	0
17	7321	144.8	0
17	7321	144.9	0
17	7321	145	0
17	7321	145.1	0
17	7321	145.2	0
17	7321	145.3	0
17	7321	145.4	0
17	7321	145.5	0
17	7321	145.6	0
17	7321	145.7	0
17	7321	145.8	0
17	7321	145.9	0
17	7321	146	0
17	7321	146.1	0
17	7321	146.2	0
17	7321	146.3	0
17	7321	146.4	0
17	7321	146.5	0
17	7321	146.6	0
17	7321	146.7	0
17	7321	146.8	0
17	7321	146.9	0
17	7321	147	0
17	7321	147.1	0
17	7321	147.2	0
17	7321	147.3	0
17	7321	147.4	0
17	7321	147.5	0
17	7321	147.6	0
17	7321	147.7	0
17	7321	147.8	0
17	7321	147.9	0
17	7321	148	0
17	7321	148.1	0
17	7321	148.2	0
17	7321	148.3	0
17	7321	148.4	0
17	7321	148.5	0
17	7321	148.6	0
17	7321	148.7	0
17	7321	148.8	0
17	7321	148.9	0
17	7321	149	0
17	7321	149.1	0
17	7321	149.2	0
17	7321	149.3	0
17	7321	149.4	0
17	7321	149.5	0
17	7321	149.6	0
17	7321	149.7	0
17	7321	149.8	0
17	7321	149.9	0
17	7321	150	0
17	7321	150.1	0
17	7321	150.2	0
17	7321	150.3	0
17	7321	150.4	0
17	7321	150.5	0
17	7321	150.6	0
17	7321	150.7	0
17	7321	150.8	0
17	7321	150.9	0
17	7321	151	0
17	7321	151.1	0
17	7321	151.2	0
17	7321	151.3	0
17	7321	151.4	0
17	7321	151.5	0
17	7321	151.6	0
17	7321	151.7	0
17	7321	151.8	0
17	7321	151.9	0
17	7321	152	0
17	7321	152.1	0
17	7321	152.2	0
17	7321	152.3	0
17	7321	152.4	0
17	7321	152.5	0
17	7321	152.6	0
17	7321	152.7	0
17	7321	152.8	0
17	7321	152.9	0
17	7321	153	0
17	7321	153.1	0
17	7321	153.2	0
17	7321	153.3	0
17	7321	153.4	0
17	7321	153.5	0
17	7321	153.6	0
17	7321	153.7	0
17	7321	153.8	0
17	7321	153.9	0
17	7321	154	0
17	7321	154.1	0
17	7321	154.2	0
17	7321	154.3	0
17	7321	154.4	0
17	7321	154.5	0
17	7321	154.6	0
17	7321	154.7	0
17	7321	154.8	0
17	7321	154.9	0
17	7321	155	0
17	7321	155.1	0
17	7321	155.2	0
17	7321	155.3	0
17	7321	155.4	0
17	7321	155.5	0
17	7321	155.6	0
17	7321	155.7	0
17	7321	155.8	0
17	7321	155.9	0
17	7321	156	0
17	7321	156.1	0
17	7321	156.2	0
17	7321	156.3	0
17	7321	156.4	0
17	7321	156.5	0
17	7321	156.6	0
17	7321	156.7	0
17	7321	156.8	0
17	7321	156.9	0
17	7321	157	0
17	7321	157.1	0
17	7321	157.2	0
17	7321	157.3	0
17	7321	157.4	0
17	7321	157.5	0
17	7321	157.6	0
17	7321	157.7	0
17	7321	157.8	0
17	7321	157.9	0
17	7321	158	0
17	7321	158.1	0
17	7321	158.2	0
17	7321	158.3	0
17	7321	158.4	0
17	7321	158.5	0
17	7321	158.6	0
17	7321	158.7	0
17	7321	158.8	0
17	7321	158.9	0
17	7321	159	0
17	7321	159.1	0
17	7321	159.2	0
17	7321	159.3	0
17	7321	159.4	0
17	7321	159.5	0
17	7321	159.6	0
17	7321	159.7	0
17	7321	159.8	0
17	7321	159.9	0
17	7321	160	0
17	7321	160.1	0
17	7321	160.2	0
17	7321	160.3	0
17	7321	160.4	0
17	7321	160.5	0
17	7321	160.6	0
17	7321	160.7	0
17	7321	160.8	0
17	7321	160.9	0
17	7321	161	0
17	7321	161.1	0
17	7321	161.2	0
17	7321	161.3	0
17	7321	161.4	0
17	7321	161.5	0
17	7321	161.6	0
17	7321	161.7	0
17	7321	161.8	0
17	7321	161.9	0
17	7321	162	0
17	7321	162.1	0
17	7321	162.2	0
17	7321	162.3	0
17	7321	162.4	0
17	7321	162.5	0
17	7321	162.6	0
17	7321	162.7	0
17	7321	162.8	0
17	7321	162.9	0
17	7321	163	0
17	7321	163.1	0
17	7321	163.2	0
17	7321	163.3	0
17	7321	163.4	0
17	7321	163.5	0
17	7321	163.6	0
17	7321	163.7	0
17	7321	163.8	0
17	7321	163.9	0
17	7321	164	0
17	7321	164.1	0
17	7321	164.2	0
17	7321	164.3	0
17	7321	164.4	0
17	7321	164.5	0
17	7321	164.6	0
17	7321	164.7	0
17	7321	164.8	0
17	7321	164.9	0
17	7321	165	0
17	7321	165.1	0
17	7321	165.2	0
17	7321	165.3	0
17	7321	165.4	0
17	7321	165.5	0
17	7321	165.6	0
17	7321	165.7	0
17	7321	165.8	0
17	7321	165.9	0
17	7321	166	0
17	7321	166.1	0
17	7321	166.2	0
17	7321	166.3	0
17	7321	166.4	0
17	7321	166.5	0
17	7321	166.6	0
17	7321	166.7	0
17	7321	166.8	0
17	7321	166.9	0
17	7321	167	0
17	7321	167.1	0
17	7321	167.2	0
17	7321	167.3	0
17	7321	167.4	0
17	7321	167.5	0
17	7321	167.6	0
17	7321	167.7	0
17	7321	167.8	0
17	7321	167.9	0
17	7321	168	0
17	7321	168.1	0
17	7321	168.2	0
17	7321	168.3	0
17	7321	168.4	0
17	7321	168.5	0
17	7321	168.6	0
17	7321	168.7	0
17	7321	168.8	0
17	7321	168.9	0
17	7321	169	0
17	7321	169.1	0
17	7321	169.2	0
17	7321	169.3	0
17	7321	169.4	0
17	7321	169.5	0
17	7321	169.6	0
17	7321	169.7	0
17	7321	169.8	0
17	7321	169.9	0
17	7321	170	0
17	7321	170.1	0
17	7321	170.2	0
17	7321	170.3	0
17	7321	170.4	0
17	7321	170.5	0
17	7321	170.6	0
17	7321	170.7	0
17	7321	170.8	0
17	7321	170.9	0
17	7321	171	0
17	7321	171.1	0
17	7321	171.2	0
17	7321	171.3	0
17	7321	171.4	0
17	7321	171.5	0
17	7321	171.6	0
17	7321	171.7	0
17	7321	171.8	0
17	7321	171.9	0
17	7321	172	0
17	7321	172.1	0
17	7321	172.2	0
17	7321	172.3	0
17	7321	172.4	0
17	7321	172.5	0
17	7321	172.6	0
17	7321	172.7	0
17	7321	172.8	0
17	7321	172.9	0
17	7321	173	0
17	7321	173.1	0
17	7321	173.2	0
17	7321	173.3	0
17	7321	173.4	0
17	7321	173.5	0
17	7321	173.6	0
17	7321	173.7	0
17	7321	173.8	0
17	7321	173.9	0
17	7321	174	0
17	7321	174.1	0
17	7321	174.2	0
17	7321	174.3	0
17	7321	174.4	0
17	7321	174.5	0
17	7321	174.6	0
17	7321	174.7	0
17	7321	174.8	0
17	7321	174.9	0
17	7321	175	0
17	7321	175.1	0
17	7321	175.2	0
17	7321	175.3	0
17	7321	175.4	0
17	7321	175.5	0
17	7321	175.6	0
17	7321	175.7	0
17	7321	175.8	0
17	7321	175.9	0
17	7321	176	0
17	7321	176.1	0
17	7321	176.2	0
17	7321	176.3	0
17	7321	176.4	0
17	7321	176.5	0
17	7321	176.6	0
17	7321	176.7	0
17	7321	176.8	0
17	7321	176.9	0
17	7321	177	0
17	7321	177.1	0
17	7321	177.2	0
17	7321	177.3	0
17	7321	177.4	0
17	7321	177.5	0
17	7321	177.6	0
17	7321	177.7	0
17	7321	177.8	0
17	7321	177.9	0
17	7321	178	0
17	7321	178.1	0
17	7321	178.2	0
17	7321	178.3	0
17	7321	178.4	0
17	7321	178.5	0
17	7321	178.6	0
17	7321	178.7	0
17	7321	178.8	0
17	7321	178.9	0
17	7321	179	0
17	7321	179.1	0
17	7321	179.2	0
17	7321	179.3	0
17	7321	179.4	0
17	7321	179.5	0
17	7321	179.6	0
17	7321	179.7	0
17	7321	179.8	0
17	7321	179.9	0
17	7321	180	0
17	7321	180.1	0
17	7321	180.2	0
17	7321	180.3	0
17	7321	180.4	0
17	7321	180.5	0
17	7321	180.6	0
17	7321	180.7	0
17	7321	180.8	0
17	7321	180.9	0
17	7321	181	0
17	7321	181.1	0
17	7321	181.2	0
17	7321	181.3	0
17	7321	181.4	0
17	7321	181.5	0
17	7321	181.6	0
17	7321	181.7	0
17	7321	181.8	0
17	7321	181.9	0
17	7321	182	0
17	7321	182.1	0
17	7321	182.2	0
17	7321	182.3	0
17	7321	182.4	0
17	7321	182.5	0
17	7321	182.6	0
17	7321	182.7	0
17	7321	182.8	0
17	7321	182.9	0
17	7321	183	0
17	7321	183.1	0
17	7321	183.2	0
17	7321	183.3	0
17	7321	183.4	0
17	7321	183.487573691792	0
18	7321	0.1	0
18	7321	0.2	0
18	7321	0.3	0
18	7321	0.4	0
18	7321	0.5	0
18	7321	0.6	0
18	7321	0.7	0
18	7321	0.8	0
18	7321	0.9	0
18	7321	1	0
18	7321	1.1	0
18	7321	1.2	0
18	7321	1.3	0
18	7321	1.4	0
18	7321	1.5	0
18	7321	1.6	0
18	7321	1.7	0
18	7321	1.8	0
18	7321	1.9	0
18	7321	2	0
18	7321	2.1	0
18	7321	2.2	0
18	7321	2.3	0
18	7321	2.4	0
18	7321	2.5	0
18	7321	2.6	0
18	7321	2.7	0
18	7321	2.8	0
18	7321	2.9	0
18	7321	3	0
18	7321	3.1	0
18	7321	3.2	0
18	7321	3.3	0
18	7321	3.4	0
18	7321	3.5	0
18	7321	3.6	0
18	7321	3.7	0
18	7321	3.8	0
18	7321	3.9	0
18	7321	4	0
18	7321	4.1	0
18	7321	4.2	0
18	7321	4.3	0
18	7321	4.4	0
18	7321	4.5	0
18	7321	4.6	0
18	7321	4.7	0
18	7321	4.8	0
18	7321	4.9	0
18	7321	5	0
18	7321	5.1	0
18	7321	5.2	0
18	7321	5.3	0
18	7321	5.4	0
18	7321	5.5	0
18	7321	5.6	0
18	7321	5.7	0
18	7321	5.8	0
18	7321	5.9	0
18	7321	6	0
18	7321	6.1	0
18	7321	6.2	0
18	7321	6.3	0
18	7321	6.4	0
18	7321	6.5	0
18	7321	6.6	0
18	7321	6.7	0
18	7321	6.8	0
18	7321	6.9	0
18	7321	7	0
18	7321	7.1	0
18	7321	7.2	0
18	7321	7.3	0
18	7321	7.4	0
18	7321	7.5	0
18	7321	7.6	0
18	7321	7.7	0
18	7321	7.8	0
18	7321	7.9	0
18	7321	8	0
18	7321	8.1	0
18	7321	8.2	0
18	7321	8.3	0
18	7321	8.4	0
18	7321	8.5	0
18	7321	8.6	0
18	7321	8.7	0
18	7321	8.8	0
18	7321	8.9	0
18	7321	9	0
18	7321	9.1	0
18	7321	9.2	0
18	7321	9.3	0
18	7321	9.4	0
18	7321	9.5	0
18	7321	9.6	0
18	7321	9.7	0
18	7321	9.8	0
18	7321	9.9	0
18	7321	10	0
18	7321	10.1	0
18	7321	10.2	0
18	7321	10.3	0
18	7321	10.4	0
18	7321	10.5	0
18	7321	10.6	0
18	7321	10.7	0
18	7321	10.8	0
18	7321	10.9	0
18	7321	11	0
18	7321	11.1	0
18	7321	11.2	0
18	7321	11.3	0
18	7321	11.4	0
18	7321	11.5	0
18	7321	11.6	0
18	7321	11.7	0
18	7321	11.8	0
18	7321	11.9	0
18	7321	12	0
18	7321	12.1	0
18	7321	12.2	0
18	7321	12.3	0
18	7321	12.4	0
18	7321	12.5	0
18	7321	12.6	0
18	7321	12.7	0
18	7321	12.8	0
18	7321	12.9	0
18	7321	13	0
18	7321	13.1	0
18	7321	13.2	0
18	7321	13.3	0
18	7321	13.4	0
18	7321	13.5	0
18	7321	13.6	0
18	7321	13.7	0
18	7321	13.8	0
18	7321	13.9	0
18	7321	14	0
18	7321	14.1	0
18	7321	14.2	0
18	7321	14.3	0
18	7321	14.4	0
18	7321	14.5	0
18	7321	14.6	0
18	7321	14.7	0
18	7321	14.8	0
18	7321	14.9	0
18	7321	15	0
18	7321	15.1	0
18	7321	15.2	0
18	7321	15.3	0
18	7321	15.4	0
18	7321	15.5	0
18	7321	15.6	0
18	7321	15.7	0
18	7321	15.8	0
18	7321	15.9	0
18	7321	16	0
18	7321	16.1	0
18	7321	16.2	0
18	7321	16.3	0
18	7321	16.4	0
18	7321	16.5	0
18	7321	16.6	0
18	7321	16.7	0
18	7321	16.8	0
18	7321	16.9	0
18	7321	17	0
18	7321	17.1	0
18	7321	17.2	0
18	7321	17.3	0
18	7321	17.4	0
18	7321	17.5	0
18	7321	17.6	0
18	7321	17.7	0
18	7321	17.8	0
18	7321	17.9	0
18	7321	18	0
18	7321	18.1	0
18	7321	18.2	0
18	7321	18.3	0
18	7321	18.4	0
18	7321	18.5	0
18	7321	18.6	0
18	7321	18.7	0
18	7321	18.8	0
18	7321	18.9	0
18	7321	19	0
18	7321	19.1	0
18	7321	19.2	0
18	7321	19.3	0
18	7321	19.4	0
18	7321	19.5	0
18	7321	19.6	0
18	7321	19.7	0
18	7321	19.8	0
18	7321	19.9	0
18	7321	20	0
18	7321	20.1	0
18	7321	20.2	0
18	7321	20.3	0
18	7321	20.4	0
18	7321	20.5	0
18	7321	20.6	0
18	7321	20.7	0
18	7321	20.8	0
18	7321	20.9	0
18	7321	21	0
18	7321	21.1	0
18	7321	21.2	0
18	7321	21.3	0
18	7321	21.4	0
18	7321	21.5	0
18	7321	21.6	0
18	7321	21.7	0
18	7321	21.8	0
18	7321	21.9	0
18	7321	22	0
18	7321	22.1	0
18	7321	22.2	0
18	7321	22.3	0
18	7321	22.4	0
18	7321	22.5	0
18	7321	22.6	0
18	7321	22.7	0
18	7321	22.8	0
18	7321	22.9	0
18	7321	23	0
18	7321	23.1	0
18	7321	23.2	0
18	7321	23.3	0
18	7321	23.4	0
18	7321	23.5	0
18	7321	23.6	0
18	7321	23.7	0
18	7321	23.8	0
18	7321	23.9	0
18	7321	24	0
18	7321	24.1	0
18	7321	24.2	0
18	7321	24.3	0
18	7321	24.4	0
18	7321	24.5	0
18	7321	24.6	0
18	7321	24.7	0
18	7321	24.8	0
18	7321	24.9	0
18	7321	25	0
18	7321	25.1	0
18	7321	25.2	0
18	7321	25.3	0
18	7321	25.4	0
18	7321	25.5	0
18	7321	25.6	0
18	7321	25.7	0
18	7321	25.8	0
18	7321	25.9	0
18	7321	26	0
18	7321	26.1	0
18	7321	26.2	0
18	7321	26.3	0
18	7321	26.4	0
18	7321	26.5	0
18	7321	26.6	0
18	7321	26.7	0
18	7321	26.8	0
18	7321	26.9	0
18	7321	27	0
18	7321	27.1	0
18	7321	27.2	0
18	7321	27.3	0
18	7321	27.4	0
18	7321	27.5	0
18	7321	27.6	0
18	7321	27.7	0
18	7321	27.8	0
18	7321	27.9	0
18	7321	28	0
18	7321	28.1	0
18	7321	28.2	0
18	7321	28.3	0
18	7321	28.4	0
18	7321	28.5	0
18	7321	28.6	0
18	7321	28.7	0
18	7321	28.8	0
18	7321	28.9	0
18	7321	29	0
18	7321	29.1	0
18	7321	29.2	0
18	7321	29.3	0
18	7321	29.4	0
18	7321	29.5	0
18	7321	29.6	0
18	7321	29.7	0
18	7321	29.8	0
18	7321	29.9	0
18	7321	30	0
18	7321	30.1	0
18	7321	30.2	0
18	7321	30.3	0
18	7321	30.4	0
18	7321	30.5	0
18	7321	30.6	0
18	7321	30.7	0
18	7321	30.8	0
18	7321	30.9	0
18	7321	31	0
18	7321	31.1	0
18	7321	31.2	0
18	7321	31.3	0
18	7321	31.4	0
18	7321	31.5	0
18	7321	31.6	0
18	7321	31.7	0
18	7321	31.8	0
18	7321	31.9	0
18	7321	32	0
18	7321	32.1	0
18	7321	32.2	0
18	7321	32.3	0
18	7321	32.4	0
18	7321	32.5	0
18	7321	32.6	0
18	7321	32.7	0
18	7321	32.8	0
18	7321	32.9	0
18	7321	33	0
18	7321	33.1	0
18	7321	33.2	0
18	7321	33.3	0
18	7321	33.4	0
18	7321	33.5	0
18	7321	33.6	0
18	7321	33.7	0
18	7321	33.8	0
18	7321	33.9	0
18	7321	34	0
18	7321	34.1	0
18	7321	34.2	0
18	7321	34.3	0
18	7321	34.4	0
18	7321	34.5	0
18	7321	34.6	0
18	7321	34.7	0
18	7321	34.8	0
18	7321	34.9	0
18	7321	35	0
18	7321	35.1	0
18	7321	35.2	0
18	7321	35.3	0
18	7321	35.4	0
18	7321	35.5	0
18	7321	35.6	0
18	7321	35.7	0
18	7321	35.8	0
18	7321	35.9	0
18	7321	36	0
18	7321	36.1	0
18	7321	36.2	0
18	7321	36.3	0
18	7321	36.4	0
18	7321	36.5	0
18	7321	36.6	0
18	7321	36.7	0
18	7321	36.8	0
18	7321	36.9	0
18	7321	37	0
18	7321	37.1	0
18	7321	37.2	0
18	7321	37.3	0
18	7321	37.4	0
18	7321	37.5	0
18	7321	37.6	0
18	7321	37.7	0
18	7321	37.8	0
18	7321	37.9	0
18	7321	38	0
18	7321	38.1	0
18	7321	38.2	0
18	7321	38.3	0
18	7321	38.4	0
18	7321	38.5	0
18	7321	38.6	0
18	7321	38.7	0
18	7321	38.8	0
18	7321	38.9	0
18	7321	39	0
18	7321	39.1	0
18	7321	39.2	0
18	7321	39.3	0
18	7321	39.4	0
18	7321	39.5	0
18	7321	39.6	0
18	7321	39.7	0
18	7321	39.8	0
18	7321	39.9	0
18	7321	40	0
18	7321	40.1	0
18	7321	40.2	0
18	7321	40.3	0
18	7321	40.4	0
18	7321	40.5	0
18	7321	40.6	0
18	7321	40.7	0
18	7321	40.8	0
18	7321	40.9	0
18	7321	41	0
18	7321	41.1	0
18	7321	41.2	0
18	7321	41.3	0
18	7321	41.4	0
18	7321	41.5	0
18	7321	41.6	0
18	7321	41.7	0
18	7321	41.8	0
18	7321	41.9	0
18	7321	42	0
18	7321	42.1	0
18	7321	42.2	0
18	7321	42.3	0
18	7321	42.4	0
18	7321	42.5	0
18	7321	42.6	0
18	7321	42.7	0
18	7321	42.8	0
18	7321	42.9	0
18	7321	43	0
18	7321	43.1	0
18	7321	43.2	0
18	7321	43.3	0
18	7321	43.4	0
18	7321	43.5	0
18	7321	43.6	0
18	7321	43.7	0
18	7321	43.8	0
18	7321	43.9	0
18	7321	44	0
18	7321	44.1	0
18	7321	44.2	0
18	7321	44.3	0
18	7321	44.4	0
18	7321	44.5	0
18	7321	44.6	0
18	7321	44.7	0
18	7321	44.8	0
18	7321	44.9	0
18	7321	45	0
18	7321	45.1	0
18	7321	45.2	0
18	7321	45.3	0
18	7321	45.4	0
18	7321	45.5	0
18	7321	45.6	0
18	7321	45.7	0
18	7321	45.8	0
18	7321	45.9	0
18	7321	46	0
18	7321	46.1	0
18	7321	46.2	0
18	7321	46.3	0
18	7321	46.4	0
18	7321	46.5	0
18	7321	46.6	0
18	7321	46.7	0
18	7321	46.8	0
18	7321	46.9	0
18	7321	47	0
18	7321	47.1	0
18	7321	47.2	0
18	7321	47.3	0
18	7321	47.4	0
18	7321	47.5	0
18	7321	47.6	0
18	7321	47.7	0
18	7321	47.8	0
18	7321	47.9	0
18	7321	48	0
18	7321	48.1	0
18	7321	48.2	0
18	7321	48.3	0
18	7321	48.4	0
18	7321	48.5	0
18	7321	48.6	0
18	7321	48.7	0
18	7321	48.8	0
18	7321	48.9	0
18	7321	49	0
18	7321	49.1	0
18	7321	49.2	0
18	7321	49.3	0
18	7321	49.4	0
18	7321	49.5	0
18	7321	49.6	0
18	7321	49.7	0
18	7321	49.8	0
18	7321	49.9	0
18	7321	50	0
18	7321	50.1	0
18	7321	50.2	0
18	7321	50.3	0
18	7321	50.4	0
18	7321	50.5	0
18	7321	50.6	0
18	7321	50.7	0
18	7321	50.8	0
18	7321	50.9	0
18	7321	51	0
18	7321	51.1	0
18	7321	51.2	0
18	7321	51.3	0
18	7321	51.4	0
18	7321	51.5	0
18	7321	51.6	0
18	7321	51.7	0
18	7321	51.8	0
18	7321	51.9	0
18	7321	52	0
18	7321	52.1	0
18	7321	52.2	0
18	7321	52.3	0
18	7321	52.4	0
18	7321	52.5	0
18	7321	52.6	0
18	7321	52.7	0
18	7321	52.8	0
18	7321	52.9	0
18	7321	53	0
18	7321	53.1	0
18	7321	53.2	0
18	7321	53.3	0
18	7321	53.4	0
18	7321	53.5	0
18	7321	53.6	0
18	7321	53.7	0
18	7321	53.8	0
18	7321	53.9	0
18	7321	54	0
18	7321	54.1	0
18	7321	54.2	0
18	7321	54.3	0
18	7321	54.4	0
18	7321	54.5	0
18	7321	54.6	0
18	7321	54.7	0
18	7321	54.8	0
18	7321	54.9	0
18	7321	55	0
18	7321	55.1	0
18	7321	55.2	0
18	7321	55.3	0
18	7321	55.4	0
18	7321	55.5	0
18	7321	55.6	0
18	7321	55.7	0
18	7321	55.8	0
18	7321	55.9	0
18	7321	56	0
18	7321	56.1	0
18	7321	56.2	0
18	7321	56.3	0
18	7321	56.4	0
18	7321	56.5	0
18	7321	56.6	0
18	7321	56.7	0
18	7321	56.8	0
18	7321	56.9	0
18	7321	57	0
18	7321	57.1	0
18	7321	57.2	0
18	7321	57.3	0
18	7321	57.4	0
18	7321	57.5	0
18	7321	57.6	0
18	7321	57.7	0
18	7321	57.8	0
18	7321	57.9	0
18	7321	58	0
18	7321	58.1	0
18	7321	58.2	0
18	7321	58.3	0
18	7321	58.4	0
18	7321	58.5	0
18	7321	58.6	0
18	7321	58.7	0
18	7321	58.8	0
18	7321	58.9	0
18	7321	59	0
18	7321	59.1	0
18	7321	59.2	0
18	7321	59.3	0
18	7321	59.4	0
18	7321	59.5	0
18	7321	59.6	0
18	7321	59.7	0
18	7321	59.8	0
18	7321	59.9	0
18	7321	60	0
18	7321	60.1	0
18	7321	60.2	0
18	7321	60.3	0
18	7321	60.4	0
18	7321	60.5	0
18	7321	60.6	0
18	7321	60.7	0
18	7321	60.8	0
18	7321	60.9	0
18	7321	61	0
18	7321	61.1	0
18	7321	61.2	0
18	7321	61.3	0
18	7321	61.4	0
18	7321	61.5	0
18	7321	61.6	0
18	7321	61.7	0
18	7321	61.8	0
18	7321	61.9	0
18	7321	62	0
18	7321	62.1	0
18	7321	62.2	0
18	7321	62.3	0
18	7321	62.4	0
18	7321	62.5	0
18	7321	62.6	0
18	7321	62.7	0
18	7321	62.8	0
18	7321	62.9	0
18	7321	63	0
18	7321	63.1	0
18	7321	63.2	0
18	7321	63.3	0
18	7321	63.4	0
18	7321	63.5	0
18	7321	63.6	0
18	7321	63.7	0
18	7321	63.8	0
18	7321	63.9	0
18	7321	64	0
18	7321	64.1	0
18	7321	64.2	0
18	7321	64.3	0
18	7321	64.4	0
18	7321	64.5	0
18	7321	64.6	0
18	7321	64.7	0
18	7321	64.8	0
18	7321	64.9	0
18	7321	65	0
18	7321	65.1	0
18	7321	65.2	0
18	7321	65.3	0
18	7321	65.4	0
18	7321	65.5	0
18	7321	65.6	0
18	7321	65.7	0
18	7321	65.8	0
18	7321	65.9	0
18	7321	66	0
18	7321	66.1	0
18	7321	66.2	0
18	7321	66.3	0
18	7321	66.4	0
18	7321	66.5	0
18	7321	66.6	0
18	7321	66.7	0
18	7321	66.8	0
18	7321	66.9	0
18	7321	67	0
18	7321	67.1	0
18	7321	67.2	0
18	7321	67.3	0
18	7321	67.4	0
18	7321	67.5	0
18	7321	67.6	0
18	7321	67.7	0
18	7321	67.8	0
18	7321	67.9	0
18	7321	68	0
18	7321	68.1	0
18	7321	68.2	0
18	7321	68.3	0
18	7321	68.4	0
18	7321	68.5	0
18	7321	68.6	0
18	7321	68.7	0
18	7321	68.8	0
18	7321	68.9	0
18	7321	69	0
18	7321	69.1	0
18	7321	69.2	0
18	7321	69.3	0
18	7321	69.4	0
18	7321	69.5	0
18	7321	69.6	0
18	7321	69.7	0
18	7321	69.8	0
18	7321	69.9	0
18	7321	70	0
18	7321	70.1	0
18	7321	70.2	0
18	7321	70.3	0
18	7321	70.4	0
18	7321	70.5	0
18	7321	70.6	0
18	7321	70.7	0
18	7321	70.8	0
18	7321	70.9	0
18	7321	71	0
18	7321	71.1	0
18	7321	71.2	0
18	7321	71.3	0
18	7321	71.4	0
18	7321	71.5	0
18	7321	71.6	0
18	7321	71.7	0
18	7321	71.8	0
18	7321	71.9	0
18	7321	72	0
18	7321	72.1	0
18	7321	72.2	0
18	7321	72.3	0
18	7321	72.4	0
18	7321	72.5	0
18	7321	72.6	0
18	7321	72.7	0
18	7321	72.8	0
18	7321	72.9	0
18	7321	73	0
18	7321	73.1	0
18	7321	73.2	0
18	7321	73.3	0
18	7321	73.4	0
18	7321	73.5	0
18	7321	73.6	0
18	7321	73.7	0
18	7321	73.8	0
18	7321	73.9	0
18	7321	74	0
18	7321	74.1	0
18	7321	74.2	0
18	7321	74.3	0
18	7321	74.4	0
18	7321	74.5	0
18	7321	74.6	0
18	7321	74.7	0
18	7321	74.8	0
18	7321	74.9	0
18	7321	75	0
18	7321	75.1	0
18	7321	75.2	0
18	7321	75.3	0
18	7321	75.4	0
18	7321	75.5	0
18	7321	75.6	0
18	7321	75.7	0
18	7321	75.8	0
18	7321	75.9	0
18	7321	76	0
18	7321	76.1	0
18	7321	76.2	0
18	7321	76.3	0
18	7321	76.4	0
18	7321	76.5	0
18	7321	76.6	0
18	7321	76.7	0
18	7321	76.8	0
18	7321	76.9	0
18	7321	77	0
18	7321	77.1	0
18	7321	77.2	0
18	7321	77.3	0
18	7321	77.4	0
18	7321	77.5	0
18	7321	77.6	0
18	7321	77.7	0
18	7321	77.8	0
18	7321	77.9	0
18	7321	78	0
18	7321	78.1	0
18	7321	78.2	0
18	7321	78.3	0
18	7321	78.4	0
18	7321	78.5	0
18	7321	78.6	0
18	7321	78.7	0
18	7321	78.8	0
18	7321	78.9	0
18	7321	79	0
18	7321	79.1	0
18	7321	79.2	0
18	7321	79.3	0
18	7321	79.4	0
18	7321	79.5	0
18	7321	79.6	0
18	7321	79.7	0
18	7321	79.8	0
18	7321	79.9	0
18	7321	80	0
18	7321	80.1	0
18	7321	80.2	0
18	7321	80.3	0
18	7321	80.4	0
18	7321	80.5	0
18	7321	80.6	0
18	7321	80.7	0
18	7321	80.8	0
18	7321	80.9	0
18	7321	81	0
18	7321	81.1	0
18	7321	81.2	0
18	7321	81.3	0
18	7321	81.4	0
18	7321	81.5	0
18	7321	81.6	0
18	7321	81.7	0
18	7321	81.8	0
18	7321	81.9	0
18	7321	82	0
18	7321	82.1	0
18	7321	82.2	0
18	7321	82.3	0
18	7321	82.4	0
18	7321	82.5	0
18	7321	82.6	0
18	7321	82.7	0
18	7321	82.8	0
18	7321	82.9	0
18	7321	83	0
18	7321	83.1	0
18	7321	83.2	0
18	7321	83.3	0
18	7321	83.4	0
18	7321	83.5	0
18	7321	83.6	0
18	7321	83.7	0
18	7321	83.8	0
18	7321	83.9	0
[...]
21	7321	62.4	0
21	7321	62.5	0
21	7321	62.6	0
21	7321	62.7	0
21	7321	62.8	0
21	7321	62.9	0
21	7321	63	0
21	7321	63.1	0
21	7321	63.2	0
21	7321	63.3	0
21	7321	63.4	0
21	7321	63.5	0
21	7321	63.6	0
21	7321	63.7	0
21	7321	63.8	0
21	7321	63.9	0
21	7321	64	0
21	7321	64.1	0
21	7321	64.2	0
21	7321	64.3	0
21	7321	64.4	0
21	7321	64.5	0
21	7321	64.6	0
21	7321	64.7	0
21	7321	64.8	0
21	7321	64.9	0
21	7321	65	0
21	7321	65.1	0
21	7321	65.2	0
21	7321	65.3	0
21	7321	65.4	0
21	7321	65.5	0
21	7321	65.6	0
21	7321	65.7	0
21	7321	65.8	0
21	7321	65.9	0
21	7321	66	0
21	7321	66.1	0
21	7321	66.2	0
21	7321	66.3	0
21	7321	66.4	0
21	7321	66.5	0
21	7321	66.6	0
21	7321	66.7	0
21	7321	66.8	0
21	7321	66.9	0
21	7321	67	0
21	7321	67.1	0
21	7321	67.2	0
21	7321	67.3	0
21	7321	67.4	0
21	7321	67.5	0
21	7321	67.6	0
21	7321	67.7	0
21	7321	67.8	0
21	7321	67.9	0
21	7321	68	0
21	7321	68.1	0
21	7321	68.2	0
21	7321	68.3	0
21	7321	68.4	0
21	7321	68.5	0
21	7321	68.6	0
21	7321	68.7	0
21	7321	68.8	0
21	7321	68.9	0
21	7321	69	0
21	7321	69.1	0
21	7321	69.2	0
21	7321	69.3	0
21	7321	69.4	0
21	7321	69.5	0
21	7321	69.6	0
21	7321	69.7	0
21	7321	69.8	0
21	7321	69.9	0
21	7321	70	0
21	7321	70.1	0
21	7321	70.2	0
21	7321	70.3	0
21	7321	70.4	0
21	7321	70.5	0
21	7321	70.6	0
21	7321	70.7	0
21	7321	70.8	0
21	7321	70.9	0
21	7321	71	0
21	7321	71.1	0
21	7321	71.2	0
21	7321	71.3	0
21	7321	71.4	0
21	7321	71.5	0
21	7321	71.6	0
21	7321	71.7	0
21	7321	71.8	0
21	7321	71.9	0
21	7321	72	0
21	7321	72.1	0
21	7321	72.2	0
21	7321	72.3	0
21	7321	72.4	0
21	7321	72.5	0
21	7321	72.6	0
21	7321	72.7	0
21	7321	72.8	0
21	7321	72.9	0
21	7321	73	0
21	7321	73.1	0
21	7321	73.2	0
21	7321	73.3	0
21	7321	73.4	0
21	7321	73.5	0
21	7321	73.6	0
21	7321	73.7	0
21	7321	73.8	0
21	7321	73.9	0
21	7321	74	0
21	7321	74.1	0
21	7321	74.2	0
21	7321	74.3	0
21	7321	74.4	0
21	7321	74.5	0
21	7321	74.6	0
21	7321	74.7	0
21	7321	74.8	0
21	7321	74.9	0
21	7321	75	0
21	7321	75.1	0
21	7321	75.2	0
21	7321	75.3	0
21	7321	75.4	0
21	7321	75.5	0
21	7321	75.6	0
21	7321	75.7	0
21	7321	75.8	0
21	7321	75.9	0
21	7321	76	0
21	7321	76.1	0
21	7321	76.2	0
21	7321	76.3	0
21	7321	76.4	0
21	7321	76.5	0
21	7321	76.6	0
21	7321	76.7	0
21	7321	76.8	0
21	7321	76.9	0
21	7321	77	0
21	7321	77.1	0
21	7321	77.2	0
21	7321	77.3	0
21	7321	77.4	0
21	7321	77.5	0
21	7321	77.6	0
21	7321	77.7	0
21	7321	77.8	0
21	7321	77.9	0
21	7321	78	0
21	7321	78.1	0
21	7321	78.2	0
21	7321	78.3	0
21	7321	78.4	0
21	7321	78.5	0
21	7321	78.6	0
21	7321	78.7	0
21	7321	78.8	0
21	7321	78.9	0
21	7321	79	0
21	7321	79.1	0
21	7321	79.2	0
21	7321	79.3	0
21	7321	79.4	0
21	7321	79.5	0
21	7321	79.6	0
21	7321	79.7	0
21	7321	79.8	0
21	7321	79.9	0
21	7321	80	0
21	7321	80.1	0
21	7321	80.2	0
21	7321	80.3	0
21	7321	80.4	0
21	7321	80.5	0
21	7321	80.6	0
21	7321	80.7	0
21	7321	80.8	0
21	7321	80.9	0
21	7321	81	0
21	7321	81.1	0
21	7321	81.2	0
21	7321	81.3	0
21	7321	81.4	0
21	7321	81.5	0
21	7321	81.6	0
21	7321	81.7	0
21	7321	81.8	0
21	7321	81.9	0
21	7321	82	0
21	7321	82.1	0
21	7321	82.2	0
21	7321	82.3	0
21	7321	82.4	0
21	7321	82.5	0
21	7321	82.6	0
21	7321	82.7	0
21	7321	82.8	0
21	7321	82.9	0
21	7321	83	0
21	7321	83.1	0
21	7321	83.2	0
21	7321	83.3	0
21	7321	83.4	0
21	7321	83.5	0
21	7321	83.6	0
21	7321	83.7	0
21	7321	83.8	0
21	7321	83.9	0
21	7321	84	0
21	7321	84.1	0
21	7321	84.2	0
21	7321	84.3	0
21	7321	84.4	0
21	7321	84.5	0
21	7321	84.6	0
21	7321	84.7	0
21	7321	84.8	0
21	7321	84.9	0
21	7321	85	0
21	7321	85.1	0
21	7321	85.2	0
21	7321	85.3	0
21	7321	85.4	0
21	7321	85.5	0
21	7321	85.6	0
21	7321	85.7	0
21	7321	85.8	0
21	7321	85.9	0
21	7321	86	0
21	7321	86.1	0
21	7321	86.2	0
21	7321	86.3	0
21	7321	86.4	0
21	7321	86.5	0
21	7321	86.6	0
21	7321	86.7	0
21	7321	86.8	0
21	7321	86.9	0
21	7321	87	0
21	7321	87.1	0
21	7321	87.2	0
21	7321	87.3	0
21	7321	87.4	0
21	7321	87.5	0
21	7321	87.6	0
21	7321	87.7	0
21	7321	87.8	0
21	7321	87.9	0
21	7321	88	0
21	7321	88.1	0
21	7321	88.2	0
21	7321	88.3	0
21	7321	88.4	0
21	7321	88.5	0
21	7321	88.6	0
21	7321	88.7	0
21	7321	88.8	0
21	7321	88.9	0
21	7321	89	0
21	7321	89.1	0
21	7321	89.2	0
21	7321	89.3	0
21	7321	89.4	0
21	7321	89.5	0
21	7321	89.6	0
21	7321	89.7	0
21	7321	89.8	0
21	7321	89.9	0
21	7321	90	0
21	7321	90.1	0
21	7321	90.2	0
21	7321	90.3	0
21	7321	90.4	0
21	7321	90.5	0
21	7321	90.6	0
21	7321	90.7	0
21	7321	90.8	0
21	7321	90.9	0
21	7321	91	0
21	7321	91.1	0
21	7321	91.2	0
21	7321	91.3	0
21	7321	91.4	0
21	7321	91.5	0
21	7321	91.6	0
21	7321	91.7	0
21	7321	91.8	0
21	7321	91.9	0
21	7321	92	0
21	7321	92.1	0
21	7321	92.2	0
21	7321	92.3	0
21	7321	92.4	0
21	7321	92.5	0
21	7321	92.6	0
21	7321	92.7	0
21	7321	92.8	0
21	7321	92.9	0
21	7321	93	0
21	7321	93.1	0
21	7321	93.2	0
21	7321	93.3	0
21	7321	93.4	0
21	7321	93.5	0
21	7321	93.6	0
21	7321	93.7	0
21	7321	93.8	0
21	7321	93.9	0
21	7321	94	0
21	7321	94.1	0
21	7321	94.2	0
21	7321	94.3	0
21	7321	94.4	0
21	7321	94.5	0
21	7321	94.6	0
21	7321	94.7	0
21	7321	94.8	0
21	7321	94.9	0
21	7321	95	0
21	7321	95.1	0
21	7321	95.2	0
21	7321	95.3	0
21	7321	95.4	0
21	7321	95.5	0
21	7321	95.6	0
21	7321	95.7	0
21	7321	95.8	0
21	7321	95.9	0
21	7321	96	0
21	7321	96.1	0
21	7321	96.2	0
21	7321	96.3	0
21	7321	96.4	0
21	7321	96.5	0
21	7321	96.6	0
21	7321	96.7	0
21	7321	96.8	0
21	7321	96.9	0
21	7321	97	0
21	7321	97.1	0
21	7321	97.2	0
21	7321	97.3	0
21	7321	97.4	0
21	7321	97.5	0
21	7321	97.6	0
21	7321	97.7	0
21	7321	97.8	0
21	7321	97.9	0
21	7321	98	0
21	7321	98.1	0
21	7321	98.2	0
21	7321	98.3	0
21	7321	98.4	0
21	7321	98.5	0
21	7321	98.6	0
21	7321	98.7	0
21	7321	98.8	0
21	7321	98.9	0
21	7321	99	0
21	7321	99.1	0
21	7321	99.2	0
21	7321	99.3	0
21	7321	99.4	0
21	7321	99.5	0
21	7321	99.6	0
21	7321	99.7	0
21	7321	99.8	0
21	7321	99.9	0
21	7321	100	0
21	7321	100.1	0
21	7321	100.2	0
21	7321	100.3	0
21	7321	100.4	0
21	7321	100.5	0
21	7321	100.6	0
21	7321	100.7	0
21	7321	100.8	0
21	7321	100.9	0
21	7321	101	0
21	7321	101.1	0
21	7321	101.2	0
21	7321	101.3	0
21	7321	101.4	0
21	7321	101.5	0
21	7321	101.6	0
21	7321	101.7	0
21	7321	101.8	0
21	7321	101.9	0
21	7321	102	0
21	7321	102.1	0
21	7321	102.2	0
21	7321	102.3	0
21	7321	102.4	0
21	7321	102.5	0
21	7321	102.6	0
21	7321	102.7	0
21	7321	102.8	0
21	7321	102.9	0
21	7321	103	0
21	7321	103.1	0
21	7321	103.2	0
21	7321	103.3	0
21	7321	103.4	0
21	7321	103.5	0
21	7321	103.6	0
21	7321	103.7	0
21	7321	103.8	0
21	7321	103.9	0
21	7321	104	0
21	7321	104.1	0
21	7321	104.2	0
21	7321	104.3	0
21	7321	104.4	0
21	7321	104.5	0
21	7321	104.6	0
21	7321	104.7	0
21	7321	104.8	0
21	7321	104.9	0
21	7321	105	0
21	7321	105.1	0
21	7321	105.2	0
21	7321	105.3	0
21	7321	105.4	0
21	7321	105.5	0
21	7321	105.6	0
21	7321	105.7	0
21	7321	105.8	0
21	7321	105.9	0
21	7321	106	0
21	7321	106.1	0
21	7321	106.2	0
21	7321	106.3	0
21	7321	106.4	0
21	7321	106.5	0
21	7321	106.6	0
21	7321	106.7	0
21	7321	106.8	0
21	7321	106.9	0
21	7321	107	0
21	7321	107.1	0
21	7321	107.2	0
21	7321	107.3	0
21	7321	107.4	0
21	7321	107.5	0
21	7321	107.6	0
21	7321	107.7	0
21	7321	107.8	0
21	7321	107.9	0
21	7321	108	0
21	7321	108.1	0
21	7321	108.2	0
21	7321	108.3	0
21	7321	108.4	0
21	7321	108.5	0
21	7321	108.6	0
21	7321	108.7	0
21	7321	108.8	0
21	7321	108.9	0
21	7321	109	0
21	7321	109.1	0
21	7321	109.2	0
21	7321	109.3	0
21	7321	109.4	0
21	7321	109.5	0
21	7321	109.6	0
21	7321	109.7	0
21	7321	109.8	0
21	7321	109.9	0
21	7321	110	0
21	7321	110.1	0
21	7321	110.2	0
21	7321	110.3	0
21	7321	110.4	0
21	7321	110.5	0
21	7321	110.6	0
21	7321	110.7	0
21	7321	110.8	0
21	7321	110.9	0
21	7321	111	0
21	7321	111.1	0
21	7321	111.2	0
21	7321	111.3	0
21	7321	111.4	0
21	7321	111.5	0
21	7321	111.6	0
21	7321	111.7	0
21	7321	111.8	0
21	7321	111.9	0
21	7321	112	0
21	7321	112.1	0
21	7321	112.2	0
21	7321	112.3	0
21	7321	112.4	0
21	7321	112.5	0
21	7321	112.6	0
21	7321	112.7	0
21	7321	112.8	0
21	7321	112.9	0
21	7321	113	0
21	7321	113.1	0
21	7321	113.2	0
21	7321	113.3	0
21	7321	113.4	0
21	7321	113.5	0
21	7321	113.6	0
21	7321	113.7	0
21	7321	113.8	0
21	7321	113.9	0
21	7321	114	0
21	7321	114.1	0
21	7321	114.2	0
21	7321	114.3	0
21	7321	114.4	0
21	7321	114.5	0
21	7321	114.6	0
21	7321	114.7	0
21	7321	114.8	0
21	7321	114.9	0
21	7321	115	0
21	7321	115.1	0
21	7321	115.2	0
21	7321	115.3	0
21	7321	115.4	0
21	7321	115.5	0
21	7321	115.6	0
21	7321	115.7	0
21	7321	115.8	0
21	7321	115.9	0
21	7321	116	0
21	7321	116.1	0
21	7321	116.2	0
21	7321	116.3	0
21	7321	116.4	0
21	7321	116.5	0
21	7321	116.6	0
21	7321	116.7	0
21	7321	116.8	0
21	7321	116.9	0
21	7321	117	0
21	7321	117.1	0
21	7321	117.2	0
21	7321	117.3	0
21	7321	117.4	0
21	7321	117.5	0
21	7321	117.6	0
21	7321	117.7	0
21	7321	117.8	0
21	7321	117.9	0
21	7321	118	0
21	7321	118.1	0
21	7321	118.2	0
21	7321	118.3	0
21	7321	118.4	0
21	7321	118.5	0
21	7321	118.6	0
21	7321	118.7	0
21	7321	118.8	0
21	7321	118.9	0
21	7321	119	0
21	7321	119.1	0
21	7321	119.2	0
21	7321	119.3	0
21	7321	119.4	0
21	7321	119.5	0
21	7321	119.6	0
21	7321	119.7	0
21	7321	119.8	0
21	7321	119.9	0
21	7321	120	0
21	7321	120.1	0
21	7321	120.2	0
21	7321	120.3	0
21	7321	120.4	0
21	7321	120.5	0
21	7321	120.6	0
21	7321	120.7	0
21	7321	120.8	0
21	7321	120.9	0
21	7321	121	0
21	7321	121.1	0
21	7321	121.2	0
21	7321	121.3	0
21	7321	121.4	0
21	7321	121.5	0
21	7321	121.6	0
21	7321	121.7	0
21	7321	121.8	0
21	7321	121.9	0
21	7321	122	0
21	7321	122.1	0
21	7321	122.2	0
21	7321	122.3	0
21	7321	122.4	0
21	7321	122.5	0
21	7321	122.6	0
21	7321	122.7	0
21	7321	122.8	0
21	7321	122.9	0
21	7321	123	0
21	7321	123.1	0
21	7321	123.2	0
21	7321	123.3	0
21	7321	123.4	0
21	7321	123.5	0
21	7321	123.6	0
21	7321	123.7	0
21	7321	123.8	0
21	7321	123.9	0
21	7321	124	0
21	7321	124.1	0
21	7321	124.2	0
21	7321	124.3	0
21	7321	124.4	0
21	7321	124.5	0
21	7321	124.6	0
21	7321	124.7	0
21	7321	124.8	0
21	7321	124.9	0
21	7321	125	0
21	7321	125.1	0
21	7321	125.2	0
21	7321	125.3	0
21	7321	125.4	0
21	7321	125.5	0
21	7321	125.6	0
21	7321	125.7	0
21	7321	125.8	0
21	7321	125.9	0
21	7321	126	0
21	7321	126.1	0
21	7321	126.2	0
21	7321	126.3	0
21	7321	126.4	0
21	7321	126.5	0
21	7321	126.6	0
21	7321	126.7	0
21	7321	126.8	0
21	7321	126.9	0
21	7321	127	0
21	7321	127.1	0
21	7321	127.2	0
21	7321	127.3	0
21	7321	127.4	0
21	7321	127.5	0
21	7321	127.6	0
21	7321	127.7	0
21	7321	127.8	0
21	7321	127.9	0
21	7321	128	0
21	7321	128.1	0
21	7321	128.2	0
21	7321	128.3	0
21	7321	128.4	0
21	7321	128.5	0
21	7321	128.6	0
21	7321	128.7	0
21	7321	128.8	0
21	7321	128.9	0
21	7321	129	0
21	7321	129.1	0
21	7321	129.2	0
21	7321	129.3	0
21	7321	129.4	0
21	7321	129.5	0
21	7321	129.6	0
21	7321	129.7	0
21	7321	129.8	0
21	7321	129.9	0
21	7321	130	0
21	7321	130.1	0
21	7321	130.2	0
21	7321	130.3	0
21	7321	130.4	0
21	7321	130.5	0
21	7321	130.6	0
21	7321	130.7	0
21	7321	130.8	0
21	7321	130.9	0
21	7321	131	0
21	7321	131.1	0
21	7321	131.2	0
21	7321	131.3	0
21	7321	131.4	0
21	7321	131.5	0
21	7321	131.6	0
21	7321	131.7	0
21	7321	131.8	0
21	7321	131.9	0
21	7321	132	0
21	7321	132.1	0
21	7321	132.2	0
21	7321	132.3	0
21	7321	132.4	0
21	7321	132.5	0
21	7321	132.6	0
21	7321	132.7	0
21	7321	132.8	0
21	7321	132.9	0
21	7321	133	0
21	7321	133.1	0
21	7321	133.2	0
21	7321	133.3	0
21	7321	133.4	0
21	7321	133.5	0
21	7321	133.6	0
21	7321	133.7	0
21	7321	133.8	0
21	7321	133.9	0
21	7321	134	0
21	7321	134.1	0
21	7321	134.2	0
21	7321	134.3	0
21	7321	134.4	0
21	7321	134.5	0
21	7321	134.6	0
21	7321	134.7	0
21	7321	134.8	0
21	7321	134.9	0
21	7321	135	0
21	7321	135.1	0
21	7321	135.2	0
21	7321	135.3	0
21	7321	135.4	0
21	7321	135.5	0
21	7321	135.6	0
21	7321	135.7	0
21	7321	135.8	0
21	7321	135.9	0
21	7321	136	0
21	7321	136.1	0
21	7321	136.2	0
21	7321	136.3	0
21	7321	136.4	0
21	7321	136.5	0
21	7321	136.6	0
21	7321	136.7	0
21	7321	136.8	0
21	7321	136.9	0
21	7321	137	0
21	7321	137.1	0
21	7321	137.2	0
21	7321	137.3	0
21	7321	137.4	0
21	7321	137.5	0
21	7321	137.6	0
21	7321	137.7	0
21	7321	137.8	0
21	7321	137.9	0
21	7321	138	0
21	7321	138.1	0
21	7321	138.2	0
21	7321	138.3	0
21	7321	138.4	0
21	7321	138.5	0
21	7321	138.6	0
21	7321	138.7	0
21	7321	138.8	0
21	7321	138.9	0
21	7321	139	0
21	7321	139.1	0
21	7321	139.2	0
21	7321	139.3	0
21	7321	139.4	0
21	7321	139.5	0
21	7321	139.6	0
21	7321	139.7	0
21	7321	139.8	0
21	7321	139.9	0
21	7321	140	0
21	7321	140.1	0
21	7321	140.2	0
21	7321	140.3	0
21	7321	140.4	0
21	7321	140.5	0
21	7321	140.6	0
21	7321	140.7	0
21	7321	140.8	0
21	7321	140.9	0
21	7321	141	0
21	7321	141.1	0
21	7321	141.2	0
21	7321	141.3	0
21	7321	141.4	0
21	7321	141.5	0
21	7321	141.6	0
21	7321	141.7	0
21	7321	141.8	0
21	7321	141.9	0
21	7321	142	0
21	7321	142.1	0
21	7321	142.2	0
21	7321	142.3	0
21	7321	142.4	0
21	7321	142.5	0
21	7321	142.6	0
21	7321	142.7	0
21	7321	142.8	0
21	7321	142.9	0
21	7321	143	0
21	7321	143.1	0
21	7321	143.2	0
21	7321	143.3	0
21	7321	143.4	0
21	7321	143.5	0
21	7321	143.6	0
21	7321	143.7	0
21	7321	143.8	0
21	7321	143.9	0
21	7321	144	0
21	7321	144.1	0
21	7321	144.2	0
21	7321	144.3	0
21	7321	144.4	0
21	7321	144.5	0
21	7321	144.6	0
21	7321	144.7	0
21	7321	144.8	0
21	7321	144.9	0
21	7321	145	0
21	7321	145.1	0
21	7321	145.2	0
21	7321	145.3	0
21	7321	145.4	0
21	7321	145.5	0
21	7321	145.6	0
21	7321	145.7	0
21	7321	145.8	0
21	7321	145.9	0
21	7321	146	0
21	7321	146.1	0
21	7321	146.2	0
21	7321	146.3	0
21	7321	146.4	0
21	7321	146.5	0
21	7321	146.6	0
21	7321	146.7	0
21	7321	146.8	0
21	7321	146.9	0
21	7321	147	0
21	7321	147.1	0
21	7321	147.2	0
21	7321	147.3	0
21	7321	147.4	0
21	7321	147.5	0
21	7321	147.6	0
21	7321	147.7	0
21	7321	147.8	0
21	7321	147.9	0
21	7321	148	0
21	7321	148.1	0
21	7321	148.2	0
21	7321	148.3	0
21	7321	148.4	0
21	7321	148.5	0
21	7321	148.6	0
21	7321	148.7	0
21	7321	148.8	0
21	7321	148.9	0
21	7321	149	0
21	7321	149.1	0
21	7321	149.2	0
21	7321	149.3	0
21	7321	149.4	0
21	7321	149.5	0
21	7321	149.6	0
21	7321	149.7	0
21	7321	149.8	0
21	7321	149.9	0
21	7321	150	0
21	7321	150.1	0
21	7321	150.2	0
21	7321	150.3	0
21	7321	150.4	0
21	7321	150.5	0
21	7321	150.6	0
21	7321	150.7	0
21	7321	150.8	0
21	7321	150.9	0
21	7321	151	0
21	7321	151.1	0
21	7321	151.2	0
21	7321	151.3	0
21	7321	151.4	0
21	7321	151.5	0
21	7321	151.6	0
21	7321	151.7	0
21	7321	151.8	0
21	7321	151.9	0
21	7321	152	0
21	7321	152.1	0
21	7321	152.2	0
21	7321	152.3	0
21	7321	152.4	0
21	7321	152.5	0
21	7321	152.6	0
21	7321	152.7	0
21	7321	152.8	0
21	7321	152.9	0
21	7321	153	0
21	7321	153.1	0
21	7321	153.2	0
21	7321	153.3	0
21	7321	153.4	0
21	7321	153.5	0
21	7321	153.6	0
21	7321	153.7	0
21	7321	153.8	0
21	7321	153.9	0
21	7321	154	0
21	7321	154.1	0
21	7321	154.2	0
21	7321	154.3	0
21	7321	154.4	0
21	7321	154.5	0
21	7321	154.6	0
21	7321	154.7	0
21	7321	154.8	0
21	7321	154.9	0
21	7321	155	0
21	7321	155.1	0
21	7321	155.2	0
21	7321	155.3	0
21	7321	155.4	0
21	7321	155.5	0
21	7321	155.6	0
21	7321	155.7	0
21	7321	155.8	0
21	7321	155.9	0
21	7321	156	0
21	7321	156.1	0
21	7321	156.2	0
21	7321	156.3	0
21	7321	156.4	0
21	7321	156.5	0
21	7321	156.6	0
21	7321	156.7	0
21	7321	156.8	0
21	7321	156.9	0
21	7321	157	0
21	7321	157.1	0
21	7321	157.2	0
21	7321	157.3	0
21	7321	157.4	0
21	7321	157.5	0
21	7321	157.6	0
21	7321	157.7	0
21	7321	157.8	0
21	7321	157.9	0
21	7321	158	0
21	7321	158.1	0
21	7321	158.2	0
21	7321	158.3	0
21	7321	158.4	0
21	7321	158.5	0
21	7321	158.6	0
21	7321	158.7	0
21	7321	158.8	0
21	7321	158.9	0
21	7321	159	0
21	7321	159.1	0
21	7321	159.2	0
21	7321	159.3	0
21	7321	159.4	0
21	7321	159.5	0
21	7321	159.6	0
21	7321	159.7	0
21	7321	159.8	0
21	7321	159.9	0
21	7321	160	0
21	7321	160.1	0
21	7321	160.2	0
21	7321	160.3	0
21	7321	160.4	0
21	7321	160.5	0
21	7321	160.6	0
21	7321	160.7	0
21	7321	160.8	0
21	7321	160.9	0
21	7321	161	0
21	7321	161.1	0
21	7321	161.2	0
21	7321	161.3	0
21	7321	161.4	0
21	7321	161.5	0
21	7321	161.6	0
21	7321	161.7	0
21	7321	161.8	0
21	7321	161.9	0
21	7321	162	0
21	7321	162.1	0
21	7321	162.2	0
21	7321	162.3	0
21	7321	162.4	0
21	7321	162.5	0
21	7321	162.6	0
21	7321	162.7	0
21	7321	162.8	0
21	7321	162.9	0
21	7321	163	0
21	7321	163.1	0
21	7321	163.2	0
21	7321	163.3	0
21	7321	163.4	0
21	7321	163.5	0
21	7321	163.6	0
21	7321	163.7	0
21	7321	163.8	0
21	7321	163.9	0
21	7321	164	0
21	7321	164.1	0
21	7321	164.2	0
21	7321	164.3	0
21	7321	164.4	0
21	7321	164.5	0
21	7321	164.6	0
21	7321	164.7	0
21	7321	164.8	0
21	7321	164.9	0
21	7321	165	0
21	7321	165.1	0
21	7321	165.2	0
21	7321	165.3	0
21	7321	165.4	0
21	7321	165.5	0
21	7321	165.6	0
21	7321	165.7	0
21	7321	165.8	0
21	7321	165.9	0
21	7321	166	0
21	7321	166.1	0
21	7321	166.2	0
21	7321	166.3	0
21	7321	166.4	0
21	7321	166.5	0
21	7321	166.6	0
21	7321	166.7	0
21	7321	166.8	0
21	7321	166.9	0
21	7321	167	0
21	7321	167.1	0
21	7321	167.2	0
21	7321	167.3	0
21	7321	167.4	0
21	7321	167.5	0
21	7321	167.6	0
21	7321	167.7	0
21	7321	167.8	0
21	7321	167.9	0
21	7321	168	0
21	7321	168.1	0
21	7321	168.2	0
21	7321	168.3	0
21	7321	168.4	0
21	7321	168.5	0
21	7321	168.6	0
21	7321	168.7	0
21	7321	168.8	0
21	7321	168.9	0
21	7321	169	0
21	7321	169.1	0
21	7321	169.2	0
21	7321	169.3	0
21	7321	169.4	0
21	7321	169.5	0
21	7321	169.6	0
21	7321	169.7	0
21	7321	169.8	0
21	7321	169.9	0
21	7321	170	0
21	7321	170.1	0
21	7321	170.2	0
21	7321	170.3	0
21	7321	170.4	0
21	7321	170.5	0
21	7321	170.6	0
21	7321	170.7	0
21	7321	170.8	0
21	7321	170.9	0
21	7321	171	0
21	7321	171.1	0
21	7321	171.2	0
21	7321	171.3	0
21	7321	171.4	0
21	7321	171.5	0
21	7321	171.6	0
21	7321	171.7	0
21	7321	171.8	0
21	7321	171.9	0
21	7321	172	0
21	7321	172.1	0
21	7321	172.2	0
21	7321	172.3	0
21	7321	172.4	0
21	7321	172.5	0
21	7321	172.6	0
21	7321	172.7	0
21	7321	172.8	0
21	7321	172.9	0
21	7321	173	0
21	7321	173.1	0
21	7321	173.2	0
21	7321	173.3	0
21	7321	173.4	0
21	7321	173.5	0
21	7321	173.6	0
21	7321	173.7	0
21	7321	173.8	0
21	7321	173.9	0
21	7321	174	0
21	7321	174.1	0
21	7321	174.2	0
21	7321	174.3	0
21	7321	174.4	0
21	7321	174.5	0
21	7321	174.6	0
21	7321	174.7	0
21	7321	174.8	0
21	7321	174.9	0
21	7321	175	0
21	7321	175.1	0
21	7321	175.2	0
21	7321	175.3	0
21	7321	175.4	0
21	7321	175.5	0
21	7321	175.6	0
21	7321	175.7	0
21	7321	175.8	0
21	7321	175.9	0
21	7321	176	0
21	7321	176.1	0
21	7321	176.2	0
21	7321	176.3	0
21	7321	176.4	0
21	7321	176.5	0
21	7321	176.6	0
21	7321	176.7	0
21	7321	176.8	0
21	7321	176.9	0
21	7321	177	0
21	7321	177.1	0
21	7321	177.2	0
21	7321	177.3	0
21	7321	177.4	0
21	7321	177.5	0
21	7321	177.6	0
21	7321	177.7	0
21	7321	177.8	0
21	7321	177.9	0
21	7321	178	0
21	7321	178.1	0
21	7321	178.2	0
21	7321	178.3	0
21	7321	178.4	0
21	7321	178.5	0
21	7321	178.6	0
21	7321	178.7	0
21	7321	178.8	0
21	7321	178.9	0
21	7321	179	0
21	7321	179.1	0
21	7321	179.2	0
21	7321	179.3	0
21	7321	179.4	0
21	7321	179.5	0
21	7321	179.6	0
21	7321	179.7	0
21	7321	179.8	0
21	7321	179.9	0
21	7321	180	0
21	7321	180.1	0
21	7321	180.2	0
21	7321	180.3	0
21	7321	180.4	0
21	7321	180.5	0
21	7321	180.6	0
21	7321	180.7	0
21	7321	180.8	0
21	7321	180.9	0
21	7321	181	0
21	7321	181.1	0
21	7321	181.2	0
21	7321	181.3	0
21	7321	181.4	0
21	7321	181.5	0
21	7321	181.6	0
21	7321	181.7	0
21	7321	181.8	0
21	7321	181.9	0
21	7321	182	0
21	7321	182.1	0
21	7321	182.2	0
21	7321	182.3	0
21	7321	182.4	0
21	7321	182.5	0
21	7321	182.6	0
21	7321	182.7	0
21	7321	182.8	0
21	7321	182.9	0
21	7321	183	0
21	7321	183.1	0
21	7321	183.2	0
21	7321	183.3	0
21	7321	183.4	0
21	7321	183.487573691792	0

