version 2
run Sim1drone1sensor-0-20210525-19:40:04-13304
attr configname Sim1drone1sensor
attr datetime 20210525-19:40:04
attr experiment Sim1drone1sensor
attr inifile mobilityDrones-omnetpp.ini
attr iterationvars ""
attr iterationvarsf ""
attr measurement ""
attr network mobilityDrones
attr processid 13304
attr repetition 0
attr replication #0
attr resultdir results
attr runnumber 0
attr seedset 0
param *.numUAVs 1
param *.drones[*].app[0].destAddresses "\"sensor1\""
param *.sensor*.app[0].destAddresses "\"drones[0]\""
param *.sensor1.mobility.initialX 450m
param *.sensor1.mobility.initialY 450m
param *.sensor1.mobility.initialZ 0m
param *.visualizer.osgVisualizer.typename "\"IntegratedOsgVisualizer\""
param *.visualizer.osgVisualizer.sceneVisualizer.typename "\"SceneOsgEarthVisualizer\""
param *.visualizer.osgVisualizer.sceneVisualizer.mapFile "\"map.earth\""
param *.visualizer.osgVisualizer.sceneVisualizer.sceneImageSize 10000m
param *.visualizer.osgVisualizer.sceneVisualizer.axisLength 500m
param *.visualizer.osgVisualizer.sceneVisualizer.sceneMinX -200m
param *.visualizer.osgVisualizer.sceneVisualizer.sceneMinY -200m
param *.visualizer.osgVisualizer.sceneVisualizer.sceneMinZ 0m
param *.visualizer.osgVisualizer.sceneVisualizer.sceneMaxX 5000m
param *.visualizer.osgVisualizer.sceneVisualizer.sceneMaxY 5000m
param *.visualizer.osgVisualizer.sceneVisualizer.sceneMaxZ 5000m
param *.visualizer.osgVisualizer.networkNodeVisualizer.displayModuleName true
param *.visualizer.*.mobilityVisualizer.displayMobility true
param *.visualizer.*.mobilityVisualizer.displayPositions true
param *.visualizer.*.mobilityVisualizer.displayOrientations true
param *.visualizer.*.mobilityVisualizer.displayVelocities true
param *.visualizer.*.mobilityVisualizer.displayMovementTrails true
param *.visualizer.*.mobilityVisualizer.animationSpeed 10
param *.visualizer.mediumVisualizer.displaySignals true
param **.constraintAreaMinX -500m
param **.constraintAreaMinY -500m
param **.constraintAreaMinZ -500m
param **.constraintAreaMaxX 5000m
param **.constraintAreaMaxY 5000m
param **.constraintAreaMaxZ 5000m
param *.drones*.wlan[0].radio.displayCommunicationRange true
param *.coordinateSystem.sceneLongitude -43.22260deg
param *.coordinateSystem.sceneLatitude -22.97556deg
param *.coordinateSystem.sceneHeading 90deg
param *.environment.ground.typename "\"FlatGround\""
param *.drones[*].osgModel "\"3d/drone.ive.100.scale.0,0,90.rot\""
param *.drones[*].mobility.typename "\"GeoWaypointMobility\""
param *.drones[*].mobility.coordinateSystemModule "\"coordinateSystem\""
param *.drones[*].mobility.waypointFile "\"geoJockeyPath.wpl\""
param *.drones[*].mobility.climbAngle 30deg
param *.drones[*].mobility.waypointProximity 5m
param **.mobility.initFromDisplayString false
param *.drones[*].mobility.speed uniform(10mps,20mps)
param *.sensor.mobility.typename "\"StationaryMobility\""
param *.sensor*.numApps 2
param *.sensor*.app[0].typename "\"UdpBasicAppMobileSensorNode\""
param *.sensor*.app[0].destPort 1000
param *.sensor*.app[0].sendInterval 0.1s
param *.sensor*.app[0].startTime 1s
param *.sensor*.app[0].messageLength 1454Byte
param *.sensor*.app[0].packetName "\"SENSOR-DEFAULT-PAYLOAD\""
param *.sensor*.app[1].typename "\"UdpSinkMobileSensorNode\""
param *.sensor*.app[1].localPort 1000

vector 0 mobilityDrones.drones[0].wlan[0].radio radioMode:vector ETV
attr interpolationmode sample-hold
attr source radioModeChanged
attr title "Radio mode, vector"
vector 1 mobilityDrones.drones[0].wlan[0].radio radioChannel:vector ETV
attr interpolationmode sample-hold
attr source radioChannelChanged
attr title "Radio channel, vector"
vector 2 mobilityDrones.sensor1.wlan[0].radio radioMode:vector ETV
attr interpolationmode sample-hold
attr source radioModeChanged
attr title "Radio mode, vector"
vector 3 mobilityDrones.sensor1.wlan[0].radio radioChannel:vector ETV
attr interpolationmode sample-hold
attr source radioChannelChanged
attr title "Radio channel, vector"
vector 4 mobilityDrones.sensor2.wlan[0].radio radioMode:vector ETV
attr interpolationmode sample-hold
attr source radioModeChanged
attr title "Radio mode, vector"
vector 5 mobilityDrones.sensor2.wlan[0].radio radioChannel:vector ETV
attr interpolationmode sample-hold
attr source radioChannelChanged
attr title "Radio channel, vector"
vector 6 mobilityDrones.sensor3.wlan[0].radio radioMode:vector ETV
attr interpolationmode sample-hold
attr source radioModeChanged
attr title "Radio mode, vector"
vector 7 mobilityDrones.sensor3.wlan[0].radio radioChannel:vector ETV
attr interpolationmode sample-hold
attr source radioChannelChanged
attr title "Radio channel, vector"
vector 8 mobilityDrones.drones[0].wlan[0].radio receptionState:vector ETV
attr interpolationmode sample-hold
attr source receptionStateChanged
attr title "Radio reception state, vector"
vector 9 mobilityDrones.sensor1.wlan[0].radio receptionState:vector ETV
attr interpolationmode sample-hold
attr source receptionStateChanged
attr title "Radio reception state, vector"
vector 10 mobilityDrones.sensor2.wlan[0].radio receptionState:vector ETV
attr interpolationmode sample-hold
attr source receptionStateChanged
attr title "Radio reception state, vector"
vector 11 mobilityDrones.sensor3.wlan[0].radio receptionState:vector ETV
attr interpolationmode sample-hold
attr source receptionStateChanged
attr title "Radio reception state, vector"
vector 12 mobilityDrones.drones[0].wlan[0].mac.dcf.recoveryProcedure contentionWindowChanged:vector ETV
attr interpolationmode sample-hold
attr title "contention window, vector"
vector 13 mobilityDrones.sensor1.wlan[0].mac.dcf.recoveryProcedure contentionWindowChanged:vector ETV
attr interpolationmode sample-hold
attr title "contention window, vector"
vector 14 mobilityDrones.sensor2.wlan[0].mac.dcf.recoveryProcedure contentionWindowChanged:vector ETV
attr interpolationmode sample-hold
attr title "contention window, vector"
vector 15 mobilityDrones.sensor3.wlan[0].mac.dcf.recoveryProcedure contentionWindowChanged:vector ETV
attr interpolationmode sample-hold
attr title "contention window, vector"
0	0	0	0
0	0	0	0
0	0	0	2
1	0	0	0
2	0	0	0
2	0	0	0
2	0	0	2
3	0	0	0
4	0	0	0
4	0	0	0
4	0	0	2
5	0	0	0
6	0	0	0
6	0	0	0
6	0	0	2
7	0	0	0
8	0	0	1
9	0	0	1
10	0	0	1
11	0	0	1
12	0	0	31
13	0	0	31
14	0	0	31
15	0	0	31
vector 16 mobilityDrones.sensor1.app[0] throughput:vector ETV
attr source throughput(packetReceived)
attr title "throughput, vector"
attr unit bps
vector 17 mobilityDrones.sensor1.app[1] throughput:vector ETV
attr source throughput(packetReceived)
attr title "throughput, vector"
attr unit bps
vector 18 mobilityDrones.sensor2.app[0] throughput:vector ETV
attr source throughput(packetReceived)
attr title "throughput, vector"
attr unit bps
vector 19 mobilityDrones.sensor2.app[1] throughput:vector ETV
attr source throughput(packetReceived)
attr title "throughput, vector"
attr unit bps
vector 20 mobilityDrones.sensor3.app[0] throughput:vector ETV
attr source throughput(packetReceived)
attr title "throughput, vector"
attr unit bps
vector 21 mobilityDrones.sensor3.app[1] throughput:vector ETV
attr source throughput(packetReceived)
attr title "throughput, vector"
attr unit bps
16	67845	0.1	0
16	67845	0.2	0
16	67845	0.3	0
16	67845	0.4	0
16	67845	0.5	0
16	67845	0.6	0
16	67845	0.7	0
16	67845	0.8	0
16	67845	0.9	0
16	67845	1	0
16	67845	1.1	0
16	67845	1.2	0
16	67845	1.3	0
16	67845	1.4	0
16	67845	1.5	0
16	67845	1.6	0
16	67845	1.7	0
16	67845	1.8	0
16	67845	1.9	0
16	67845	2	0
16	67845	2.1	0
16	67845	2.2	0
16	67845	2.3	0
16	67845	2.4	0
16	67845	2.5	0
16	67845	2.6	0
16	67845	2.7	0
16	67845	2.8	0
16	67845	2.9	0
16	67845	3	0
16	67845	3.1	0
16	67845	3.2	0
16	67845	3.3	0
16	67845	3.4	0
16	67845	3.5	0
16	67845	3.6	0
16	67845	3.7	0
16	67845	3.8	0
16	67845	3.9	0
16	67845	4	0
16	67845	4.1	0
16	67845	4.2	0
16	67845	4.3	0
16	67845	4.4	0
16	67845	4.5	0
16	67845	4.6	0
16	67845	4.7	0
16	67845	4.8	0
16	67845	4.9	0
16	67845	5	0
16	67845	5.1	0
16	67845	5.2	0
16	67845	5.3	0
16	67845	5.4	0
16	67845	5.5	0
16	67845	5.6	0
16	67845	5.7	0
16	67845	5.8	0
16	67845	5.9	0
16	67845	6	0
16	67845	6.1	0
16	67845	6.2	0
16	67845	6.3	0
16	67845	6.4	0
16	67845	6.5	0
16	67845	6.6	0
16	67845	6.7	0
16	67845	6.8	0
16	67845	6.9	0
16	67845	7	0
16	67845	7.1	0
16	67845	7.2	0
16	67845	7.3	0
16	67845	7.4	0
16	67845	7.5	0
16	67845	7.6	0
16	67845	7.7	0
16	67845	7.8	0
16	67845	7.9	0
16	67845	8	0
16	67845	8.1	0
16	67845	8.2	0
16	67845	8.3	0
16	67845	8.4	0
16	67845	8.5	0
16	67845	8.6	0
16	67845	8.7	0
16	67845	8.8	0
16	67845	8.9	0
16	67845	9	0
16	67845	9.1	0
16	67845	9.2	0
16	67845	9.3	0
16	67845	9.4	0
16	67845	9.5	0
16	67845	9.6	0
16	67845	9.7	0
16	67845	9.8	0
16	67845	9.9	0
16	67845	10	0
16	67845	10.1	0
16	67845	10.2	0
16	67845	10.3	0
16	67845	10.4	0
16	67845	10.5	0
16	67845	10.6	0
16	67845	10.7	0
16	67845	10.8	0
16	67845	10.9	0
16	67845	11	0
16	67845	11.1	0
16	67845	11.2	0
16	67845	11.3	0
16	67845	11.4	0
16	67845	11.5	0
16	67845	11.6	0
16	67845	11.7	0
16	67845	11.8	0
16	67845	11.9	0
16	67845	12	0
16	67845	12.1	0
16	67845	12.2	0
16	67845	12.3	0
16	67845	12.4	0
16	67845	12.5	0
16	67845	12.6	0
16	67845	12.7	0
16	67845	12.8	0
16	67845	12.9	0
16	67845	13	0
16	67845	13.1	0
16	67845	13.2	0
16	67845	13.3	0
16	67845	13.4	0
16	67845	13.5	0
16	67845	13.6	0
16	67845	13.7	0
16	67845	13.8	0
16	67845	13.9	0
16	67845	14	0
16	67845	14.1	0
16	67845	14.2	0
16	67845	14.3	0
16	67845	14.4	0
16	67845	14.5	0
16	67845	14.6	0
16	67845	14.7	0
16	67845	14.8	0
16	67845	14.9	0
16	67845	15	0
16	67845	15.1	0
16	67845	15.2	0
16	67845	15.3	0
16	67845	15.4	0
16	67845	15.5	0
16	67845	15.6	0
16	67845	15.7	0
16	67845	15.8	0
16	67845	15.9	0
16	67845	16	0
16	67845	16.1	0
16	67845	16.2	0
16	67845	16.3	0
16	67845	16.4	0
16	67845	16.5	0
16	67845	16.6	0
16	67845	16.7	0
16	67845	16.8	0
16	67845	16.9	0
16	67845	17	0
16	67845	17.1	0
16	67845	17.2	0
16	67845	17.3	0
16	67845	17.4	0
16	67845	17.5	0
16	67845	17.6	0
16	67845	17.7	0
16	67845	17.8	0
16	67845	17.9	0
16	67845	18	0
16	67845	18.1	0
16	67845	18.2	0
16	67845	18.3	0
16	67845	18.4	0
16	67845	18.5	0
16	67845	18.6	0
16	67845	18.7	0
16	67845	18.8	0
16	67845	18.9	0
16	67845	19	0
16	67845	19.1	0
16	67845	19.2	0
16	67845	19.3	0
16	67845	19.4	0
16	67845	19.5	0
16	67845	19.6	0
16	67845	19.7	0
16	67845	19.8	0
16	67845	19.9	0
16	67845	20	0
16	67845	20.1	0
16	67845	20.2	0
16	67845	20.3	0
16	67845	20.4	0
16	67845	20.5	0
16	67845	20.6	0
16	67845	20.7	0
16	67845	20.8	0
16	67845	20.9	0
16	67845	21	0
16	67845	21.1	0
16	67845	21.2	0
16	67845	21.3	0
16	67845	21.4	0
16	67845	21.5	0
16	67845	21.6	0
16	67845	21.7	0
16	67845	21.8	0
16	67845	21.9	0
16	67845	22	0
16	67845	22.1	0
16	67845	22.2	0
16	67845	22.3	0
16	67845	22.4	0
16	67845	22.5	0
16	67845	22.6	0
16	67845	22.7	0
16	67845	22.8	0
16	67845	22.9	0
16	67845	23	0
16	67845	23.1	0
16	67845	23.2	0
16	67845	23.3	0
16	67845	23.4	0
16	67845	23.5	0
16	67845	23.6	0
16	67845	23.7	0
16	67845	23.8	0
16	67845	23.9	0
16	67845	24	0
16	67845	24.1	0
16	67845	24.2	0
16	67845	24.3	0
16	67845	24.4	0
16	67845	24.5	0
16	67845	24.6	0
16	67845	24.7	0
16	67845	24.8	0
16	67845	24.9	0
16	67845	25	0
16	67845	25.1	0
16	67845	25.2	0
16	67845	25.3	0
16	67845	25.4	0
16	67845	25.5	0
16	67845	25.6	0
16	67845	25.7	0
16	67845	25.8	0
16	67845	25.9	0
16	67845	26	0
16	67845	26.1	0
16	67845	26.2	0
16	67845	26.3	0
16	67845	26.4	0
16	67845	26.5	0
16	67845	26.6	0
16	67845	26.7	0
16	67845	26.8	0
16	67845	26.9	0
16	67845	27	0
16	67845	27.1	0
16	67845	27.2	0
16	67845	27.3	0
16	67845	27.4	0
16	67845	27.5	0
16	67845	27.6	0
16	67845	27.7	0
16	67845	27.8	0
16	67845	27.9	0
16	67845	28	0
16	67845	28.1	0
16	67845	28.2	0
16	67845	28.3	0
16	67845	28.4	0
16	67845	28.5	0
16	67845	28.6	0
16	67845	28.7	0
16	67845	28.8	0
16	67845	28.9	0
16	67845	29	0
16	67845	29.1	0
16	67845	29.2	0
16	67845	29.3	0
16	67845	29.4	0
16	67845	29.5	0
16	67845	29.6	0
16	67845	29.7	0
16	67845	29.8	0
16	67845	29.9	0
16	67845	30	0
16	67845	30.1	0
16	67845	30.2	0
16	67845	30.3	0
16	67845	30.4	0
16	67845	30.5	0
16	67845	30.6	0
16	67845	30.7	0
16	67845	30.8	0
16	67845	30.9	0
16	67845	31	0
16	67845	31.1	0
16	67845	31.2	0
16	67845	31.3	0
16	67845	31.4	0
16	67845	31.5	0
16	67845	31.6	0
16	67845	31.7	0
16	67845	31.8	0
16	67845	31.9	0
16	67845	32	0
16	67845	32.1	0
16	67845	32.2	0
16	67845	32.3	0
16	67845	32.4	0
16	67845	32.5	0
16	67845	32.6	0
16	67845	32.7	0
16	67845	32.8	0
16	67845	32.9	0
16	67845	33	0
16	67845	33.1	0
16	67845	33.2	0
16	67845	33.3	0
16	67845	33.4	0
16	67845	33.5	0
16	67845	33.6	0
16	67845	33.7	0
16	67845	33.8	0
16	67845	33.9	0
16	67845	34	0
16	67845	34.1	0
16	67845	34.2	0
16	67845	34.3	0
16	67845	34.4	0
16	67845	34.5	0
16	67845	34.6	0
16	67845	34.7	0
16	67845	34.8	0
16	67845	34.9	0
16	67845	35	0
16	67845	35.1	0
16	67845	35.2	0
16	67845	35.3	0
16	67845	35.4	0
16	67845	35.5	0
16	67845	35.6	0
16	67845	35.7	0
16	67845	35.8	0
16	67845	35.9	0
16	67845	36	0
16	67845	36.1	0
16	67845	36.2	0
16	67845	36.3	0
16	67845	36.4	0
16	67845	36.5	0
16	67845	36.6	0
16	67845	36.7	0
16	67845	36.8	0
16	67845	36.9	0
16	67845	37	0
16	67845	37.1	0
16	67845	37.2	0
16	67845	37.3	0
16	67845	37.4	0
16	67845	37.5	0
16	67845	37.6	0
16	67845	37.7	0
16	67845	37.8	0
16	67845	37.9	0
16	67845	38	0
16	67845	38.1	0
16	67845	38.2	0
16	67845	38.3	0
16	67845	38.4	0
16	67845	38.5	0
16	67845	38.6	0
16	67845	38.7	0
16	67845	38.8	0
16	67845	38.9	0
16	67845	39	0
16	67845	39.1	0
16	67845	39.2	0
16	67845	39.3	0
16	67845	39.4	0
16	67845	39.5	0
16	67845	39.6	0
16	67845	39.7	0
16	67845	39.8	0
16	67845	39.9	0
16	67845	40	0
16	67845	40.1	0
16	67845	40.2	0
16	67845	40.3	0
16	67845	40.4	0
16	67845	40.5	0
16	67845	40.6	0
16	67845	40.7	0
16	67845	40.8	0
16	67845	40.9	0
16	67845	41	0
16	67845	41.1	0
16	67845	41.2	0
16	67845	41.3	0
16	67845	41.4	0
16	67845	41.5	0
16	67845	41.6	0
16	67845	41.7	0
16	67845	41.8	0
16	67845	41.9	0
16	67845	42	0
16	67845	42.1	0
16	67845	42.2	0
16	67845	42.3	0
16	67845	42.4	0
16	67845	42.5	0
16	67845	42.6	0
16	67845	42.7	0
16	67845	42.8	0
16	67845	42.9	0
16	67845	43	0
16	67845	43.1	0
16	67845	43.2	0
16	67845	43.3	0
16	67845	43.4	0
16	67845	43.5	0
16	67845	43.6	0
16	67845	43.7	0
16	67845	43.8	0
16	67845	43.9	0
16	67845	44	0
16	67845	44.1	0
16	67845	44.2	0
16	67845	44.3	0
16	67845	44.4	0
16	67845	44.5	0
16	67845	44.6	0
16	67845	44.7	0
16	67845	44.8	0
16	67845	44.9	0
16	67845	45	0
16	67845	45.1	0
16	67845	45.2	0
16	67845	45.3	0
16	67845	45.4	0
16	67845	45.5	0
16	67845	45.6	0
16	67845	45.7	0
16	67845	45.8	0
16	67845	45.9	0
16	67845	46	0
16	67845	46.1	0
16	67845	46.2	0
16	67845	46.3	0
16	67845	46.4	0
16	67845	46.5	0
16	67845	46.6	0
16	67845	46.7	0
16	67845	46.8	0
16	67845	46.9	0
16	67845	47	0
16	67845	47.1	0
16	67845	47.2	0
16	67845	47.3	0
16	67845	47.4	0
16	67845	47.5	0
16	67845	47.6	0
16	67845	47.7	0
16	67845	47.8	0
16	67845	47.9	0
16	67845	48	0
16	67845	48.1	0
16	67845	48.2	0
16	67845	48.3	0
16	67845	48.4	0
16	67845	48.5	0
16	67845	48.6	0
16	67845	48.7	0
16	67845	48.8	0
16	67845	48.9	0
16	67845	49	0
16	67845	49.1	0
16	67845	49.2	0
16	67845	49.3	0
16	67845	49.4	0
16	67845	49.5	0
16	67845	49.6	0
16	67845	49.7	0
16	67845	49.8	0
16	67845	49.9	0
16	67845	50	0
16	67845	50.1	0
16	67845	50.2	0
16	67845	50.3	0
16	67845	50.4	0
16	67845	50.5	0
16	67845	50.6	0
16	67845	50.7	0
16	67845	50.8	0
16	67845	50.9	0
16	67845	51	0
16	67845	51.1	0
16	67845	51.2	0
16	67845	51.3	0
16	67845	51.4	0
16	67845	51.5	0
16	67845	51.6	0
16	67845	51.7	0
16	67845	51.8	0
16	67845	51.9	0
16	67845	52	0
16	67845	52.1	0
16	67845	52.2	0
16	67845	52.3	0
16	67845	52.4	0
16	67845	52.5	0
16	67845	52.6	0
16	67845	52.7	0
16	67845	52.8	0
16	67845	52.9	0
16	67845	53	0
16	67845	53.1	0
16	67845	53.2	0
16	67845	53.3	0
16	67845	53.4	0
16	67845	53.5	0
16	67845	53.6	0
16	67845	53.7	0
16	67845	53.8	0
16	67845	53.9	0
16	67845	54	0
16	67845	54.1	0
16	67845	54.2	0
16	67845	54.3	0
16	67845	54.4	0
16	67845	54.5	0
16	67845	54.6	0
16	67845	54.7	0
16	67845	54.8	0
16	67845	54.9	0
16	67845	55	0
16	67845	55.1	0
16	67845	55.2	0
16	67845	55.3	0
16	67845	55.4	0
16	67845	55.5	0
16	67845	55.6	0
16	67845	55.7	0
16	67845	55.8	0
16	67845	55.9	0
16	67845	56	0
16	67845	56.1	0
16	67845	56.2	0
16	67845	56.3	0
16	67845	56.4	0
16	67845	56.5	0
16	67845	56.6	0
16	67845	56.7	0
16	67845	56.8	0
16	67845	56.9	0
16	67845	57	0
16	67845	57.1	0
16	67845	57.2	0
16	67845	57.3	0
16	67845	57.4	0
16	67845	57.5	0
16	67845	57.6	0
16	67845	57.7	0
16	67845	57.8	0
16	67845	57.9	0
16	67845	58	0
16	67845	58.1	0
16	67845	58.2	0
16	67845	58.3	0
16	67845	58.4	0
16	67845	58.5	0
16	67845	58.6	0
16	67845	58.7	0
16	67845	58.8	0
16	67845	58.9	0
16	67845	59	0
16	67845	59.1	0
16	67845	59.2	0
16	67845	59.3	0
16	67845	59.4	0
16	67845	59.5	0
16	67845	59.6	0
16	67845	59.7	0
16	67845	59.8	0
16	67845	59.9	0
16	67845	60	0
16	67845	60.1	0
16	67845	60.2	0
16	67845	60.3	0
16	67845	60.4	0
16	67845	60.5	0
16	67845	60.6	0
16	67845	60.7	0
16	67845	60.8	0
16	67845	60.9	0
16	67845	61	0
16	67845	61.1	0
16	67845	61.2	0
16	67845	61.3	0
16	67845	61.4	0
16	67845	61.5	0
16	67845	61.6	0
16	67845	61.7	0
16	67845	61.8	0
16	67845	61.9	0
16	67845	62	0
16	67845	62.1	0
16	67845	62.2	0
16	67845	62.3	0
16	67845	62.4	0
16	67845	62.5	0
16	67845	62.6	0
16	67845	62.7	0
16	67845	62.8	0
16	67845	62.9	0
16	67845	63	0
16	67845	63.1	0
16	67845	63.2	0
16	67845	63.3	0
16	67845	63.4	0
16	67845	63.5	0
16	67845	63.6	0
16	67845	63.7	0
16	67845	63.8	0
16	67845	63.9	0
16	67845	64	0
16	67845	64.1	0
16	67845	64.2	0
16	67845	64.3	0
16	67845	64.4	0
16	67845	64.5	0
16	67845	64.6	0
16	67845	64.7	0
16	67845	64.8	0
16	67845	64.9	0
16	67845	65	0
16	67845	65.1	0
16	67845	65.2	0
16	67845	65.3	0
16	67845	65.4	0
16	67845	65.5	0
16	67845	65.6	0
16	67845	65.7	0
16	67845	65.8	0
16	67845	65.9	0
16	67845	66	0
16	67845	66.1	0
16	67845	66.2	0
16	67845	66.3	0
16	67845	66.4	0
16	67845	66.5	0
16	67845	66.6	0
16	67845	66.7	0
16	67845	66.8	0
16	67845	66.9	0
16	67845	67	0
16	67845	67.1	0
16	67845	67.2	0
16	67845	67.3	0
16	67845	67.4	0
16	67845	67.5	0
16	67845	67.6	0
16	67845	67.7	0
16	67845	67.8	0
16	67845	67.9	0
16	67845	68	0
16	67845	68.1	0
16	67845	68.2	0
16	67845	68.3	0
16	67845	68.4	0
16	67845	68.5	0
16	67845	68.6	0
16	67845	68.7	0
16	67845	68.8	0
16	67845	68.9	0
16	67845	69	0
16	67845	69.1	0
16	67845	69.2	0
16	67845	69.3	0
16	67845	69.4	0
16	67845	69.5	0
16	67845	69.6	0
16	67845	69.7	0
16	67845	69.8	0
16	67845	69.9	0
16	67845	70	0
16	67845	70.1	0
16	67845	70.2	0
16	67845	70.3	0
16	67845	70.4	0
16	67845	70.5	0
16	67845	70.6	0
16	67845	70.7	0
16	67845	70.8	0
16	67845	70.9	0
16	67845	71	0
16	67845	71.1	0
16	67845	71.2	0
16	67845	71.3	0
16	67845	71.4	0
16	67845	71.5	0
16	67845	71.6	0
16	67845	71.7	0
16	67845	71.8	0
16	67845	71.9	0
16	67845	72	0
16	67845	72.1	0
16	67845	72.2	0
16	67845	72.3	0
16	67845	72.4	0
16	67845	72.5	0
16	67845	72.6	0
16	67845	72.7	0
16	67845	72.8	0
16	67845	72.9	0
16	67845	73	0
16	67845	73.1	0
16	67845	73.2	0
16	67845	73.3	0
16	67845	73.4	0
16	67845	73.5	0
16	67845	73.6	0
16	67845	73.7	0
16	67845	73.8	0
16	67845	73.9	0
16	67845	74	0
16	67845	74.1	0
16	67845	74.2	0
16	67845	74.3	0
16	67845	74.4	0
16	67845	74.5	0
16	67845	74.6	0
16	67845	74.7	0
16	67845	74.8	0
16	67845	74.9	0
16	67845	75	0
16	67845	75.1	0
16	67845	75.2	0
16	67845	75.3	0
16	67845	75.4	0
16	67845	75.5	0
16	67845	75.6	0
16	67845	75.7	0
16	67845	75.8	0
16	67845	75.9	0
16	67845	76	0
16	67845	76.1	0
16	67845	76.2	0
16	67845	76.3	0
16	67845	76.4	0
16	67845	76.5	0
16	67845	76.6	0
16	67845	76.7	0
16	67845	76.8	0
16	67845	76.9	0
16	67845	77	0
16	67845	77.1	0
16	67845	77.2	0
16	67845	77.3	0
16	67845	77.4	0
16	67845	77.5	0
16	67845	77.6	0
16	67845	77.7	0
16	67845	77.8	0
16	67845	77.9	0
16	67845	78	0
16	67845	78.1	0
16	67845	78.2	0
16	67845	78.3	0
16	67845	78.4	0
16	67845	78.5	0
16	67845	78.6	0
16	67845	78.7	0
16	67845	78.8	0
16	67845	78.9	0
16	67845	79	0
16	67845	79.1	0
16	67845	79.2	0
16	67845	79.3	0
16	67845	79.4	0
16	67845	79.5	0
16	67845	79.6	0
16	67845	79.7	0
16	67845	79.8	0
16	67845	79.9	0
16	67845	80	0
16	67845	80.1	0
16	67845	80.2	0
16	67845	80.3	0
16	67845	80.4	0
16	67845	80.5	0
16	67845	80.6	0
16	67845	80.7	0
16	67845	80.8	0
16	67845	80.9	0
16	67845	81	0
16	67845	81.1	0
16	67845	81.2	0
16	67845	81.3	0
16	67845	81.4	0
16	67845	81.5	0
16	67845	81.6	0
16	67845	81.7	0
16	67845	81.8	0
16	67845	81.9	0
16	67845	82	0
16	67845	82.1	0
16	67845	82.2	0
16	67845	82.3	0
16	67845	82.4	0
16	67845	82.5	0
16	67845	82.6	0
16	67845	82.7	0
16	67845	82.8	0
16	67845	82.9	0
16	67845	83	0
16	67845	83.1	0
16	67845	83.2	0
16	67845	83.3	0
16	67845	83.4	0
16	67845	83.5	0
16	67845	83.6	0
16	67845	83.7	0
16	67845	83.8	0
16	67845	83.9	0
16	67845	84	0
16	67845	84.1	0
16	67845	84.2	0
16	67845	84.3	0
16	67845	84.4	0
16	67845	84.5	0
16	67845	84.6	0
16	67845	84.7	0
16	67845	84.8	0
16	67845	84.9	0
16	67845	85	0
16	67845	85.1	0
16	67845	85.2	0
16	67845	85.3	0
16	67845	85.4	0
16	67845	85.5	0
16	67845	85.6	0
16	67845	85.7	0
16	67845	85.8	0
16	67845	85.9	0
16	67845	86	0
16	67845	86.1	0
16	67845	86.2	0
16	67845	86.3	0
16	67845	86.4	0
16	67845	86.5	0
16	67845	86.6	0
16	67845	86.7	0
16	67845	86.8	0
16	67845	86.9	0
16	67845	87	0
16	67845	87.1	0
16	67845	87.2	0
16	67845	87.3	0
16	67845	87.4	0
16	67845	87.5	0
16	67845	87.6	0
16	67845	87.7	0
16	67845	87.8	0
16	67845	87.9	0
16	67845	88	0
16	67845	88.1	0
16	67845	88.2	0
16	67845	88.3	0
16	67845	88.4	0
16	67845	88.5	0
16	67845	88.6	0
16	67845	88.7	0
16	67845	88.8	0
16	67845	88.9	0
16	67845	89	0
16	67845	89.1	0
16	67845	89.2	0
16	67845	89.3	0
16	67845	89.4	0
16	67845	89.5	0
16	67845	89.6	0
16	67845	89.7	0
16	67845	89.8	0
16	67845	89.9	0
16	67845	90	0
16	67845	90.1	0
16	67845	90.2	0
16	67845	90.3	0
16	67845	90.4	0
16	67845	90.5	0
16	67845	90.6	0
16	67845	90.7	0
16	67845	90.8	0
16	67845	90.9	0
16	67845	91	0
16	67845	91.1	0
16	67845	91.2	0
16	67845	91.3	0
16	67845	91.4	0
16	67845	91.5	0
16	67845	91.6	0
16	67845	91.7	0
16	67845	91.8	0
16	67845	91.9	0
16	67845	92	0
16	67845	92.1	0
16	67845	92.2	0
16	67845	92.3	0
16	67845	92.4	0
16	67845	92.5	0
16	67845	92.6	0
16	67845	92.7	0
16	67845	92.8	0
16	67845	92.9	0
16	67845	93	0
16	67845	93.1	0
16	67845	93.2	0
16	67845	93.3	0
16	67845	93.4	0
16	67845	93.5	0
16	67845	93.6	0
16	67845	93.7	0
16	67845	93.8	0
16	67845	93.9	0
16	67845	94	0
16	67845	94.1	0
16	67845	94.2	0
16	67845	94.3	0
16	67845	94.4	0
16	67845	94.5	0
16	67845	94.6	0
16	67845	94.7	0
16	67845	94.8	0
16	67845	94.9	0
16	67845	95	0
16	67845	95.1	0
16	67845	95.2	0
16	67845	95.3	0
16	67845	95.4	0
16	67845	95.5	0
16	67845	95.6	0
16	67845	95.7	0
16	67845	95.8	0
16	67845	95.9	0
16	67845	96	0
16	67845	96.1	0
16	67845	96.2	0
16	67845	96.3	0
16	67845	96.4	0
16	67845	96.5	0
16	67845	96.6	0
16	67845	96.7	0
16	67845	96.8	0
16	67845	96.9	0
16	67845	97	0
16	67845	97.1	0
16	67845	97.2	0
16	67845	97.3	0
16	67845	97.4	0
16	67845	97.5	0
16	67845	97.6	0
16	67845	97.7	0
16	67845	97.8	0
16	67845	97.9	0
16	67845	98	0
16	67845	98.1	0
16	67845	98.2	0
16	67845	98.3	0
16	67845	98.4	0
16	67845	98.5	0
16	67845	98.6	0
16	67845	98.7	0
16	67845	98.8	0
16	67845	98.9	0
16	67845	99	0
16	67845	99.1	0
16	67845	99.2	0
16	67845	99.3	0
16	67845	99.4	0
16	67845	99.5	0
16	67845	99.6	0
16	67845	99.7	0
16	67845	99.8	0
16	67845	99.9	0
16	67845	100	0
16	67845	100.1	0
16	67845	100.2	0
16	67845	100.3	0
16	67845	100.4	0
16	67845	100.5	0
16	67845	100.6	0
16	67845	100.7	0
16	67845	100.8	0
16	67845	100.9	0
16	67845	101	0
16	67845	101.1	0
16	67845	101.2	0
16	67845	101.3	0
16	67845	101.4	0
16	67845	101.5	0
16	67845	101.6	0
16	67845	101.7	0
16	67845	101.8	0
16	67845	101.9	0
16	67845	102	0
16	67845	102.1	0
16	67845	102.2	0
16	67845	102.3	0
16	67845	102.4	0
16	67845	102.5	0
16	67845	102.6	0
16	67845	102.7	0
16	67845	102.8	0
16	67845	102.9	0
16	67845	103	0
16	67845	103.1	0
16	67845	103.2	0
16	67845	103.3	0
16	67845	103.4	0
16	67845	103.5	0
16	67845	103.6	0
16	67845	103.7	0
16	67845	103.8	0
16	67845	103.9	0
16	67845	104	0
16	67845	104.1	0
16	67845	104.2	0
16	67845	104.3	0
16	67845	104.4	0
16	67845	104.5	0
16	67845	104.6	0
16	67845	104.7	0
16	67845	104.8	0
16	67845	104.9	0
16	67845	105	0
16	67845	105.1	0
16	67845	105.2	0
16	67845	105.3	0
16	67845	105.4	0
16	67845	105.5	0
16	67845	105.6	0
16	67845	105.7	0
16	67845	105.8	0
16	67845	105.9	0
16	67845	106	0
16	67845	106.1	0
16	67845	106.2	0
16	67845	106.3	0
16	67845	106.4	0
16	67845	106.5	0
16	67845	106.6	0
16	67845	106.7	0
16	67845	106.8	0
16	67845	106.9	0
16	67845	107	0
16	67845	107.1	0
16	67845	107.2	0
16	67845	107.3	0
16	67845	107.4	0
16	67845	107.5	0
16	67845	107.6	0
16	67845	107.7	0
16	67845	107.8	0
16	67845	107.9	0
16	67845	108	0
16	67845	108.1	0
16	67845	108.2	0
16	67845	108.3	0
16	67845	108.4	0
16	67845	108.5	0
16	67845	108.6	0
16	67845	108.7	0
16	67845	108.8	0
16	67845	108.9	0
16	67845	109	0
16	67845	109.1	0
16	67845	109.2	0
16	67845	109.3	0
16	67845	109.4	0
16	67845	109.5	0
16	67845	109.6	0
16	67845	109.7	0
16	67845	109.8	0
16	67845	109.9	0
16	67845	110	0
16	67845	110.1	0
16	67845	110.2	0
16	67845	110.3	0
16	67845	110.4	0
16	67845	110.5	0
16	67845	110.6	0
16	67845	110.7	0
16	67845	110.8	0
16	67845	110.9	0
16	67845	111	0
16	67845	111.1	0
16	67845	111.2	0
16	67845	111.3	0
16	67845	111.4	0
16	67845	111.5	0
16	67845	111.6	0
16	67845	111.7	0
16	67845	111.8	0
16	67845	111.9	0
16	67845	112	0
16	67845	112.1	0
16	67845	112.2	0
16	67845	112.3	0
16	67845	112.4	0
16	67845	112.5	0
16	67845	112.6	0
16	67845	112.7	0
16	67845	112.8	0
16	67845	112.9	0
16	67845	113	0
16	67845	113.1	0
16	67845	113.2	0
16	67845	113.3	0
16	67845	113.4	0
16	67845	113.5	0
16	67845	113.6	0
16	67845	113.7	0
16	67845	113.8	0
16	67845	113.9	0
16	67845	114	0
16	67845	114.1	0
16	67845	114.2	0
16	67845	114.3	0
16	67845	114.4	0
16	67845	114.5	0
16	67845	114.6	0
16	67845	114.7	0
16	67845	114.8	0
16	67845	114.9	0
16	67845	115	0
16	67845	115.1	0
16	67845	115.2	0
16	67845	115.3	0
16	67845	115.4	0
16	67845	115.5	0
16	67845	115.6	0
16	67845	115.7	0
16	67845	115.8	0
16	67845	115.9	0
16	67845	116	0
16	67845	116.1	0
16	67845	116.2	0
16	67845	116.3	0
16	67845	116.4	0
16	67845	116.5	0
16	67845	116.6	0
16	67845	116.7	0
16	67845	116.8	0
16	67845	116.9	0
16	67845	117	0
16	67845	117.1	0
16	67845	117.2	0
16	67845	117.3	0
16	67845	117.4	0
16	67845	117.5	0
16	67845	117.6	0
16	67845	117.7	0
16	67845	117.8	0
16	67845	117.9	0
16	67845	118	0
16	67845	118.1	0
16	67845	118.2	0
16	67845	118.3	0
16	67845	118.4	0
16	67845	118.5	0
16	67845	118.6	0
16	67845	118.7	0
16	67845	118.8	0
16	67845	118.9	0
16	67845	119	0
16	67845	119.1	0
16	67845	119.2	0
16	67845	119.3	0
16	67845	119.4	0
16	67845	119.5	0
16	67845	119.6	0
16	67845	119.7	0
16	67845	119.8	0
16	67845	119.9	0
16	67845	120	0
16	67845	120.1	0
16	67845	120.2	0
16	67845	120.3	0
16	67845	120.4	0
16	67845	120.5	0
16	67845	120.6	0
16	67845	120.7	0
16	67845	120.8	0
16	67845	120.9	0
16	67845	121	0
16	67845	121.1	0
16	67845	121.2	0
16	67845	121.3	0
16	67845	121.4	0
16	67845	121.5	0
16	67845	121.6	0
16	67845	121.7	0
16	67845	121.8	0
16	67845	121.9	0
16	67845	122	0
16	67845	122.1	0
16	67845	122.2	0
16	67845	122.3	0
16	67845	122.4	0
16	67845	122.5	0
16	67845	122.6	0
16	67845	122.7	0
16	67845	122.8	0
16	67845	122.9	0
16	67845	123	0
16	67845	123.1	0
16	67845	123.2	0
16	67845	123.3	0
16	67845	123.4	0
16	67845	123.5	0
16	67845	123.6	0
16	67845	123.7	0
16	67845	123.8	0
16	67845	123.9	0
16	67845	124	0
16	67845	124.1	0
16	67845	124.2	0
16	67845	124.3	0
16	67845	124.4	0
16	67845	124.5	0
16	67845	124.6	0
16	67845	124.7	0
16	67845	124.8	0
16	67845	124.9	0
16	67845	125	0
16	67845	125.1	0
16	67845	125.2	0
16	67845	125.3	0
16	67845	125.4	0
16	67845	125.5	0
16	67845	125.6	0
16	67845	125.7	0
16	67845	125.8	0
16	67845	125.9	0
16	67845	126	0
16	67845	126.1	0
16	67845	126.2	0
16	67845	126.3	0
16	67845	126.4	0
16	67845	126.5	0
16	67845	126.6	0
16	67845	126.7	0
16	67845	126.8	0
16	67845	126.9	0
16	67845	127	0
16	67845	127.1	0
16	67845	127.2	0
16	67845	127.3	0
16	67845	127.4	0
16	67845	127.5	0
16	67845	127.6	0
16	67845	127.7	0
16	67845	127.8	0
16	67845	127.9	0
16	67845	128	0
16	67845	128.1	0
16	67845	128.2	0
16	67845	128.3	0
16	67845	128.4	0
16	67845	128.5	0
16	67845	128.6	0
16	67845	128.7	0
16	67845	128.8	0
16	67845	128.9	0
16	67845	129	0
16	67845	129.1	0
16	67845	129.2	0
16	67845	129.3	0
16	67845	129.4	0
16	67845	129.5	0
16	67845	129.6	0
16	67845	129.7	0
16	67845	129.8	0
16	67845	129.9	0
16	67845	130	0
16	67845	130.1	0
16	67845	130.2	0
16	67845	130.3	0
16	67845	130.4	0
16	67845	130.5	0
16	67845	130.6	0
16	67845	130.7	0
16	67845	130.8	0
16	67845	130.9	0
16	67845	131	0
16	67845	131.1	0
16	67845	131.2	0
16	67845	131.3	0
16	67845	131.4	0
16	67845	131.5	0
16	67845	131.6	0
16	67845	131.7	0
16	67845	131.8	0
16	67845	131.9	0
16	67845	132	0
16	67845	132.1	0
16	67845	132.2	0
16	67845	132.3	0
16	67845	132.4	0
16	67845	132.5	0
16	67845	132.6	0
16	67845	132.7	0
16	67845	132.8	0
16	67845	132.9	0
16	67845	133	0
16	67845	133.1	0
16	67845	133.2	0
16	67845	133.3	0
16	67845	133.4	0
16	67845	133.5	0
16	67845	133.6	0
16	67845	133.7	0
16	67845	133.8	0
16	67845	133.9	0
16	67845	134	0
16	67845	134.1	0
16	67845	134.2	0
16	67845	134.3	0
16	67845	134.4	0
16	67845	134.5	0
16	67845	134.6	0
16	67845	134.7	0
16	67845	134.8	0
16	67845	134.9	0
16	67845	135	0
16	67845	135.1	0
16	67845	135.2	0
16	67845	135.3	0
16	67845	135.4	0
16	67845	135.5	0
16	67845	135.6	0
16	67845	135.7	0
16	67845	135.8	0
16	67845	135.9	0
16	67845	136	0
16	67845	136.1	0
16	67845	136.2	0
16	67845	136.3	0
16	67845	136.4	0
16	67845	136.5	0
16	67845	136.6	0
16	67845	136.7	0
16	67845	136.8	0
16	67845	136.9	0
16	67845	137	0
16	67845	137.1	0
16	67845	137.2	0
16	67845	137.3	0
16	67845	137.4	0
16	67845	137.5	0
16	67845	137.6	0
16	67845	137.7	0
16	67845	137.8	0
16	67845	137.9	0
16	67845	138	0
16	67845	138.1	0
16	67845	138.2	0
16	67845	138.3	0
16	67845	138.4	0
16	67845	138.5	0
16	67845	138.6	0
16	67845	138.7	0
16	67845	138.8	0
16	67845	138.9	0
16	67845	139	0
16	67845	139.1	0
16	67845	139.2	0
16	67845	139.3	0
16	67845	139.4	0
16	67845	139.5	0
16	67845	139.6	0
16	67845	139.7	0
16	67845	139.8	0
16	67845	139.9	0
16	67845	140	0
16	67845	140.1	0
16	67845	140.2	0
16	67845	140.3	0
16	67845	140.4	0
16	67845	140.5	0
16	67845	140.6	0
16	67845	140.7	0
16	67845	140.8	0
16	67845	140.9	0
16	67845	141	0
16	67845	141.1	0
16	67845	141.2	0
16	67845	141.3	0
16	67845	141.4	0
16	67845	141.5	0
16	67845	141.6	0
16	67845	141.7	0
16	67845	141.8	0
16	67845	141.9	0
16	67845	142	0
16	67845	142.1	0
16	67845	142.2	0
16	67845	142.3	0
16	67845	142.4	0
16	67845	142.5	0
16	67845	142.6	0
16	67845	142.7	0
16	67845	142.8	0
16	67845	142.9	0
16	67845	143	0
16	67845	143.1	0
16	67845	143.2	0
16	67845	143.3	0
16	67845	143.4	0
16	67845	143.5	0
16	67845	143.6	0
16	67845	143.7	0
16	67845	143.8	0
16	67845	143.9	0
16	67845	144	0
16	67845	144.1	0
16	67845	144.2	0
16	67845	144.3	0
16	67845	144.4	0
16	67845	144.5	0
16	67845	144.6	0
16	67845	144.7	0
16	67845	144.8	0
16	67845	144.9	0
16	67845	145	0
16	67845	145.1	0
16	67845	145.2	0
16	67845	145.3	0
16	67845	145.4	0
16	67845	145.5	0
16	67845	145.6	0
16	67845	145.7	0
16	67845	145.8	0
16	67845	145.9	0
16	67845	146	0
16	67845	146.1	0
16	67845	146.2	0
16	67845	146.3	0
16	67845	146.4	0
16	67845	146.5	0
16	67845	146.6	0
16	67845	146.7	0
16	67845	146.8	0
16	67845	146.9	0
16	67845	147	0
16	67845	147.1	0
16	67845	147.2	0
16	67845	147.3	0
16	67845	147.4	0
16	67845	147.5	0
16	67845	147.6	0
16	67845	147.7	0
16	67845	147.8	0
16	67845	147.9	0
16	67845	148	0
16	67845	148.1	0
16	67845	148.2	0
16	67845	148.3	0
16	67845	148.4	0
16	67845	148.5	0
16	67845	148.6	0
16	67845	148.7	0
16	67845	148.8	0
16	67845	148.9	0
16	67845	149	0
16	67845	149.1	0
16	67845	149.2	0
16	67845	149.3	0
16	67845	149.4	0
16	67845	149.5	0
16	67845	149.6	0
16	67845	149.7	0
16	67845	149.8	0
16	67845	149.9	0
16	67845	150	0
16	67845	150.1	0
16	67845	150.2	0
16	67845	150.3	0
16	67845	150.4	0
16	67845	150.5	0
16	67845	150.6	0
16	67845	150.7	0
16	67845	150.8	0
16	67845	150.9	0
16	67845	151	0
16	67845	151.1	0
16	67845	151.2	0
16	67845	151.3	0
16	67845	151.4	0
16	67845	151.5	0
16	67845	151.6	0
16	67845	151.7	0
16	67845	151.8	0
16	67845	151.9	0
16	67845	152	0
16	67845	152.1	0
16	67845	152.2	0
16	67845	152.3	0
16	67845	152.4	0
16	67845	152.5	0
16	67845	152.6	0
16	67845	152.7	0
16	67845	152.8	0
16	67845	152.9	0
16	67845	153	0
16	67845	153.1	0
16	67845	153.2	0
16	67845	153.3	0
16	67845	153.4	0
16	67845	153.5	0
16	67845	153.6	0
16	67845	153.7	0
16	67845	153.8	0
16	67845	153.9	0
16	67845	154	0
16	67845	154.1	0
16	67845	154.2	0
16	67845	154.3	0
16	67845	154.4	0
16	67845	154.5	0
16	67845	154.6	0
16	67845	154.7	0
16	67845	154.8	0
16	67845	154.9	0
16	67845	155	0
16	67845	155.1	0
16	67845	155.2	0
16	67845	155.3	0
16	67845	155.4	0
16	67845	155.5	0
16	67845	155.6	0
16	67845	155.7	0
16	67845	155.8	0
16	67845	155.9	0
16	67845	156	0
16	67845	156.1	0
16	67845	156.2	0
16	67845	156.3	0
16	67845	156.4	0
16	67845	156.5	0
16	67845	156.6	0
16	67845	156.7	0
16	67845	156.8	0
16	67845	156.9	0
16	67845	157	0
16	67845	157.1	0
16	67845	157.2	0
16	67845	157.3	0
16	67845	157.4	0
16	67845	157.5	0
16	67845	157.6	0
16	67845	157.7	0
16	67845	157.8	0
16	67845	157.9	0
16	67845	158	0
16	67845	158.1	0
16	67845	158.2	0
16	67845	158.3	0
16	67845	158.4	0
16	67845	158.5	0
16	67845	158.6	0
16	67845	158.7	0
16	67845	158.8	0
16	67845	158.9	0
16	67845	159	0
16	67845	159.1	0
16	67845	159.2	0
16	67845	159.3	0
16	67845	159.4	0
16	67845	159.5	0
16	67845	159.6	0
16	67845	159.7	0
16	67845	159.8	0
16	67845	159.9	0
16	67845	160	0
16	67845	160.1	0
16	67845	160.2	0
16	67845	160.3	0
16	67845	160.4	0
16	67845	160.5	0
16	67845	160.6	0
16	67845	160.7	0
16	67845	160.8	0
16	67845	160.9	0
16	67845	161	0
16	67845	161.1	0
16	67845	161.2	0
16	67845	161.3	0
16	67845	161.4	0
16	67845	161.5	0
16	67845	161.6	0
16	67845	161.7	0
16	67845	161.8	0
16	67845	161.9	0
16	67845	162	0
16	67845	162.1	0
16	67845	162.2	0
16	67845	162.3	0
16	67845	162.4	0
16	67845	162.5	0
16	67845	162.6	0
16	67845	162.7	0
16	67845	162.8	0
16	67845	162.9	0
16	67845	163	0
16	67845	163.1	0
16	67845	163.2	0
16	67845	163.3	0
16	67845	163.4	0
16	67845	163.5	0
16	67845	163.6	0
16	67845	163.7	0
16	67845	163.8	0
16	67845	163.9	0
16	67845	164	0
16	67845	164.1	0
16	67845	164.2	0
16	67845	164.3	0
16	67845	164.4	0
16	67845	164.5	0
16	67845	164.6	0
16	67845	164.7	0
16	67845	164.8	0
16	67845	164.9	0
16	67845	165	0
16	67845	165.1	0
16	67845	165.2	0
16	67845	165.3	0
16	67845	165.4	0
16	67845	165.5	0
16	67845	165.6	0
16	67845	165.7	0
16	67845	165.8	0
16	67845	165.9	0
16	67845	166	0
16	67845	166.1	0
16	67845	166.2	0
16	67845	166.3	0
16	67845	166.4	0
16	67845	166.5	0
16	67845	166.6	0
16	67845	166.7	0
16	67845	166.8	0
16	67845	166.9	0
16	67845	167	0
16	67845	167.1	0
16	67845	167.2	0
16	67845	167.3	0
16	67845	167.4	0
16	67845	167.5	0
16	67845	167.6	0
16	67845	167.7	0
16	67845	167.8	0
16	67845	167.9	0
16	67845	168	0
16	67845	168.1	0
16	67845	168.2	0
16	67845	168.3	0
16	67845	168.4	0
16	67845	168.5	0
16	67845	168.6	0
16	67845	168.7	0
16	67845	168.8	0
16	67845	168.9	0
16	67845	169	0
16	67845	169.1	0
16	67845	169.2	0
16	67845	169.3	0
16	67845	169.4	0
16	67845	169.5	0
16	67845	169.6	0
16	67845	169.7	0
16	67845	169.8	0
16	67845	169.9	0
16	67845	170	0
16	67845	170.1	0
16	67845	170.2	0
16	67845	170.3	0
16	67845	170.4	0
16	67845	170.5	0
16	67845	170.6	0
16	67845	170.7	0
16	67845	170.8	0
16	67845	170.9	0
16	67845	171	0
16	67845	171.1	0
16	67845	171.2	0
16	67845	171.3	0
16	67845	171.4	0
16	67845	171.5	0
16	67845	171.6	0
16	67845	171.7	0
16	67845	171.8	0
16	67845	171.9	0
16	67845	172	0
16	67845	172.1	0
16	67845	172.2	0
16	67845	172.3	0
16	67845	172.4	0
16	67845	172.5	0
16	67845	172.6	0
16	67845	172.7	0
16	67845	172.8	0
16	67845	172.9	0
16	67845	173	0
16	67845	173.1	0
16	67845	173.2	0
16	67845	173.3	0
16	67845	173.4	0
16	67845	173.5	0
16	67845	173.6	0
16	67845	173.7	0
16	67845	173.8	0
16	67845	173.9	0
16	67845	174	0
16	67845	174.1	0
16	67845	174.2	0
16	67845	174.3	0
16	67845	174.4	0
16	67845	174.5	0
16	67845	174.6	0
16	67845	174.7	0
16	67845	174.8	0
16	67845	174.9	0
16	67845	175	0
16	67845	175.1	0
16	67845	175.2	0
16	67845	175.3	0
16	67845	175.4	0
16	67845	175.5	0
16	67845	175.6	0
16	67845	175.7	0
16	67845	175.8	0
16	67845	175.9	0
16	67845	176	0
16	67845	176.1	0
16	67845	176.2	0
16	67845	176.3	0
16	67845	176.4	0
16	67845	176.5	0
16	67845	176.6	0
16	67845	176.7	0
16	67845	176.8	0
16	67845	176.9	0
16	67845	177	0
16	67845	177.1	0
16	67845	177.2	0
16	67845	177.3	0
16	67845	177.4	0
16	67845	177.5	0
16	67845	177.6	0
16	67845	177.7	0
16	67845	177.8	0
16	67845	177.9	0
16	67845	178	0
16	67845	178.1	0
16	67845	178.2	0
16	67845	178.3	0
16	67845	178.4	0
16	67845	178.5	0
16	67845	178.6	0
16	67845	178.7	0
16	67845	178.8	0
16	67845	178.9	0
16	67845	179	0
16	67845	179.1	0
16	67845	179.2	0
16	67845	179.3	0
16	67845	179.4	0
16	67845	179.5	0
16	67845	179.6	0
16	67845	179.7	0
16	67845	179.8	0
16	67845	179.9	0
16	67845	180	0
16	67845	180.1	0
16	67845	180.2	0
16	67845	180.3	0
16	67845	180.4	0
16	67845	180.5	0
16	67845	180.6	0
16	67845	180.7	0
16	67845	180.8	0
16	67845	180.9	0
16	67845	181	0
16	67845	181.1	0
16	67845	181.2	0
16	67845	181.3	0
16	67845	181.4	0
16	67845	181.5	0
16	67845	181.6	0
16	67845	181.7	0
16	67845	181.8	0
16	67845	181.9	0
16	67845	182	0
16	67845	182.1	0
16	67845	182.2	0
16	67845	182.3	0
16	67845	182.4	0
16	67845	182.5	0
16	67845	182.6	0
16	67845	182.7	0
16	67845	182.8	0
16	67845	182.9	0
16	67845	183	0
16	67845	183.1	0
16	67845	183.2	0
16	67845	183.3	0
16	67845	183.4	0
16	67845	183.5	0
16	67845	183.6	0
16	67845	183.7	0
16	67845	183.8	0
16	67845	183.9	0
16	67845	184	0
16	67845	184.1	0
16	67845	184.2	0
16	67845	184.3	0
16	67845	184.4	0
16	67845	184.5	0
16	67845	184.6	0
16	67845	184.7	0
16	67845	184.8	0
16	67845	184.9	0
16	67845	185	0
16	67845	185.1	0
16	67845	185.2	0
16	67845	185.3	0
16	67845	185.4	0
16	67845	185.5	0
16	67845	185.6	0
16	67845	185.7	0
16	67845	185.8	0
16	67845	185.9	0
16	67845	186	0
16	67845	186.1	0
16	67845	186.2	0
16	67845	186.3	0
16	67845	186.4	0
16	67845	186.5	0
16	67845	186.6	0
16	67845	186.7	0
16	67845	186.8	0
16	67845	186.9	0
16	67845	187	0
16	67845	187.1	0
16	67845	187.2	0
16	67845	187.3	0
16	67845	187.4	0
16	67845	187.5	0
16	67845	187.6	0
16	67845	187.7	0
16	67845	187.8	0
16	67845	187.9	0
16	67845	188	0
16	67845	188.1	0
16	67845	188.2	0
16	67845	188.3	0
16	67845	188.4	0
16	67845	188.5	0
16	67845	188.6	0
16	67845	188.7	0
16	67845	188.8	0
16	67845	188.9	0
16	67845	189	0
16	67845	189.1	0
16	67845	189.2	0
16	67845	189.3	0
16	67845	189.4	0
16	67845	189.5	0
16	67845	189.6	0
16	67845	189.7	0
16	67845	189.8	0
16	67845	189.9	0
16	67845	190	0
16	67845	190.1	0
16	67845	190.2	0
16	67845	190.3	0
16	67845	190.4	0
16	67845	190.5	0
16	67845	190.6	0
16	67845	190.7	0
16	67845	190.8	0
16	67845	190.9	0
16	67845	191	0
16	67845	191.1	0
16	67845	191.2	0
16	67845	191.3	0
16	67845	191.4	0
16	67845	191.5	0
16	67845	191.6	0
16	67845	191.7	0
16	67845	191.8	0
16	67845	191.9	0
16	67845	192	0
16	67845	192.1	0
16	67845	192.2	0
16	67845	192.3	0
16	67845	192.4	0
16	67845	192.5	0
16	67845	192.6	0
16	67845	192.7	0
16	67845	192.8	0
16	67845	192.9	0
16	67845	193	0
16	67845	193.1	0
16	67845	193.2	0
16	67845	193.3	0
16	67845	193.4	0
16	67845	193.5	0
16	67845	193.6	0
16	67845	193.7	0
16	67845	193.8	0
16	67845	193.9	0
16	67845	194	0
16	67845	194.1	0
16	67845	194.2	0
16	67845	194.3	0
16	67845	194.4	0
16	67845	194.5	0
16	67845	194.6	0
16	67845	194.7	0
16	67845	194.8	0
16	67845	194.9	0
16	67845	195	0
16	67845	195.1	0
16	67845	195.2	0
16	67845	195.3	0
16	67845	195.4	0
16	67845	195.5	0
16	67845	195.6	0
16	67845	195.7	0
16	67845	195.8	0
16	67845	195.9	0
16	67845	196	0
16	67845	196.1	0
16	67845	196.2	0
16	67845	196.3	0
16	67845	196.4	0
16	67845	196.5	0
16	67845	196.6	0
16	67845	196.7	0
16	67845	196.8	0
16	67845	196.9	0
16	67845	197	0
16	67845	197.1	0
16	67845	197.2	0
16	67845	197.3	0
16	67845	197.4	0
16	67845	197.5	0
16	67845	197.6	0
16	67845	197.7	0
16	67845	197.8	0
16	67845	197.9	0
16	67845	198	0
16	67845	198.1	0
16	67845	198.2	0
16	67845	198.3	0
16	67845	198.4	0
16	67845	198.5	0
16	67845	198.6	0
16	67845	198.7	0
16	67845	198.8	0
16	67845	198.9	0
16	67845	199	0
16	67845	199.1	0
16	67845	199.2	0
16	67845	199.3	0
16	67845	199.4	0
16	67845	199.5	0
16	67845	199.6	0
16	67845	199.7	0
16	67845	199.8	0
16	67845	199.9	0
16	67845	200	0
16	67845	200.1	0
16	67845	200.2	0
16	67845	200.3	0
16	67845	200.4	0
16	67845	200.5	0
16	67845	200.6	0
16	67845	200.7	0
16	67845	200.8	0
16	67845	200.9	0
16	67845	201	0
16	67845	201.1	0
16	67845	201.2	0
16	67845	201.3	0
16	67845	201.4	0
16	67845	201.5	0
16	67845	201.6	0
16	67845	201.7	0
16	67845	201.8	0
16	67845	201.9	0
16	67845	202	0
16	67845	202.1	0
16	67845	202.2	0
16	67845	202.3	0
16	67845	202.4	0
16	67845	202.5	0
16	67845	202.6	0
16	67845	202.7	0
16	67845	202.8	0
16	67845	202.9	0
16	67845	203	0
16	67845	203.1	0
16	67845	203.2	0
16	67845	203.3	0
16	67845	203.4	0
16	67845	203.5	0
16	67845	203.6	0
16	67845	203.7	0
16	67845	203.8	0
16	67845	203.9	0
16	67845	204	0
16	67845	204.1	0
16	67845	204.2	0
16	67845	204.3	0
16	67845	204.4	0
16	67845	204.5	0
16	67845	204.6	0
16	67845	204.7	0
16	67845	204.8	0
16	67845	204.9	0
16	67845	205	0
16	67845	205.1	0
16	67845	205.2	0
16	67845	205.3	0
16	67845	205.4	0
16	67845	205.5	0
16	67845	205.6	0
16	67845	205.7	0
16	67845	205.8	0
16	67845	205.9	0
16	67845	206	0
16	67845	206.1	0
16	67845	206.2	0
16	67845	206.3	0
16	67845	206.4	0
16	67845	206.5	0
16	67845	206.6	0
16	67845	206.7	0
16	67845	206.8	0
16	67845	206.9	0
16	67845	207	0
16	67845	207.1	0
16	67845	207.2	0
16	67845	207.3	0
16	67845	207.4	0
16	67845	207.5	0
16	67845	207.6	0
16	67845	207.7	0
16	67845	207.8	0
16	67845	207.9	0
16	67845	208	0
16	67845	208.1	0
16	67845	208.2	0
16	67845	208.3	0
16	67845	208.4	0
16	67845	208.5	0
16	67845	208.6	0
16	67845	208.7	0
16	67845	208.8	0
16	67845	208.9	0
16	67845	209	0
16	67845	209.1	0
16	67845	209.2	0
16	67845	209.3	0
16	67845	209.4	0
16	67845	209.5	0
16	67845	209.6	0
16	67845	209.7	0
16	67845	209.8	0
16	67845	209.9	0
16	67845	210	0
16	67845	210.1	0
16	67845	210.2	0
16	67845	210.3	0
16	67845	210.4	0
16	67845	210.5	0
16	67845	210.6	0
16	67845	210.7	0
16	67845	210.8	0
16	67845	210.9	0
16	67845	211	0
16	67845	211.1	0
16	67845	211.2	0
16	67845	211.3	0
16	67845	211.4	0
16	67845	211.5	0
16	67845	211.6	0
16	67845	211.7	0
16	67845	211.8	0
16	67845	211.9	0
16	67845	212	0
16	67845	212.1	0
16	67845	212.2	0
16	67845	212.3	0
16	67845	212.4	0
16	67845	212.5	0
16	67845	212.6	0
16	67845	212.7	0
16	67845	212.8	0
16	67845	212.9	0
16	67845	213	0
16	67845	213.1	0
16	67845	213.2	0
16	67845	213.3	0
16	67845	213.4	0
16	67845	213.5	0
16	67845	213.6	0
16	67845	213.7	0
16	67845	213.8	0
16	67845	213.9	0
16	67845	214	0
16	67845	214.1	0
16	67845	214.2	0
16	67845	214.3	0
16	67845	214.4	0
16	67845	214.5	0
16	67845	214.6	0
16	67845	214.7	0
16	67845	214.8	0
16	67845	214.9	0
16	67845	215	0
16	67845	215.1	0
16	67845	215.2	0
16	67845	215.3	0
16	67845	215.4	0
16	67845	215.5	0
16	67845	215.6	0
16	67845	215.7	0
16	67845	215.8	0
16	67845	215.9	0
16	67845	216	0
16	67845	216.1	0
16	67845	216.2	0
16	67845	216.3	0
16	67845	216.4	0
16	67845	216.5	0
16	67845	216.6	0
16	67845	216.7	0
16	67845	216.8	0
16	67845	216.9	0
16	67845	217	0
16	67845	217.1	0
16	67845	217.2	0
16	67845	217.3	0
16	67845	217.4	0
16	67845	217.5	0
16	67845	217.6	0
16	67845	217.7	0
16	67845	217.8	0
16	67845	217.9	0
16	67845	218	0
16	67845	218.1	0
16	67845	218.2	0
16	67845	218.3	0
16	67845	218.4	0
16	67845	218.5	0
16	67845	218.6	0
16	67845	218.7	0
16	67845	218.8	0
16	67845	218.9	0
16	67845	219	0
16	67845	219.1	0
16	67845	219.2	0
16	67845	219.3	0
16	67845	219.4	0
16	67845	219.5	0
16	67845	219.6	0
16	67845	219.7	0
16	67845	219.8	0
16	67845	219.9	0
16	67845	220	0
16	67845	220.1	0
16	67845	220.2	0
16	67845	220.3	0
16	67845	220.4	0
16	67845	220.5	0
16	67845	220.6	0
16	67845	220.7	0
16	67845	220.8	0
16	67845	220.9	0
16	67845	221	0
16	67845	221.1	0
16	67845	221.2	0
16	67845	221.3	0
16	67845	221.4	0
16	67845	221.5	0
16	67845	221.6	0
16	67845	221.7	0
16	67845	221.8	0
16	67845	221.9	0
16	67845	222	0
16	67845	222.1	0
16	67845	222.2	0
16	67845	222.3	0
16	67845	222.4	0
16	67845	222.5	0
16	67845	222.6	0
16	67845	222.7	0
16	67845	222.8	0
16	67845	222.9	0
16	67845	223	0
16	67845	223.1	0
16	67845	223.2	0
16	67845	223.3	0
16	67845	223.4	0
16	67845	223.5	0
16	67845	223.6	0
16	67845	223.7	0
16	67845	223.8	0
16	67845	223.9	0
16	67845	224	0
16	67845	224.1	0
16	67845	224.2	0
16	67845	224.3	0
16	67845	224.4	0
16	67845	224.5	0
16	67845	224.6	0
16	67845	224.7	0
16	67845	224.8	0
16	67845	224.9	0
16	67845	225	0
16	67845	225.1	0
16	67845	225.2	0
16	67845	225.3	0
16	67845	225.4	0
16	67845	225.5	0
16	67845	225.6	0
16	67845	225.7	0
16	67845	225.8	0
16	67845	225.9	0
16	67845	226	0
16	67845	226.1	0
16	67845	226.2	0
16	67845	226.3	0
16	67845	226.4	0
16	67845	226.5	0
16	67845	226.6	0
16	67845	226.7	0
16	67845	226.8	0
16	67845	226.9	0
16	67845	227	0
16	67845	227.1	0
16	67845	227.2	0
16	67845	227.3	0
16	67845	227.4	0
16	67845	227.5	0
16	67845	227.6	0
16	67845	227.7	0
16	67845	227.8	0
16	67845	227.9	0
16	67845	228	0
16	67845	228.1	0
16	67845	228.2	0
16	67845	228.3	0
16	67845	228.4	0
16	67845	228.5	0
16	67845	228.6	0
16	67845	228.7	0
16	67845	228.8	0
16	67845	228.9	0
16	67845	229	0
16	67845	229.1	0
16	67845	229.2	0
16	67845	229.3	0
16	67845	229.4	0
16	67845	229.5	0
16	67845	229.6	0
16	67845	229.7	0
16	67845	229.8	0
16	67845	229.9	0
16	67845	230	0
16	67845	230.1	0
16	67845	230.2	0
16	67845	230.3	0
16	67845	230.4	0
16	67845	230.5	0
16	67845	230.6	0
16	67845	230.7	0
16	67845	230.8	0
16	67845	230.9	0
16	67845	231	0
16	67845	231.1	0
16	67845	231.2	0
16	67845	231.3	0
16	67845	231.4	0
16	67845	231.5	0
16	67845	231.6	0
16	67845	231.7	0
16	67845	231.8	0
16	67845	231.9	0
16	67845	232	0
16	67845	232.1	0
16	67845	232.2	0
16	67845	232.3	0
16	67845	232.4	0
16	67845	232.5	0
16	67845	232.6	0
16	67845	232.7	0
16	67845	232.8	0
16	67845	232.9	0
16	67845	233	0
16	67845	233.1	0
16	67845	233.2	0
16	67845	233.3	0
16	67845	233.4	0
16	67845	233.5	0
16	67845	233.6	0
16	67845	233.7	0
16	67845	233.8	0
16	67845	233.9	0
16	67845	234	0
16	67845	234.1	0
16	67845	234.2	0
16	67845	234.3	0
16	67845	234.4	0
16	67845	234.5	0
16	67845	234.6	0
16	67845	234.7	0
16	67845	234.8	0
16	67845	234.9	0
16	67845	235	0
16	67845	235.1	0
16	67845	235.2	0
16	67845	235.3	0
16	67845	235.4	0
16	67845	235.5	0
16	67845	235.6	0
16	67845	235.7	0
16	67845	235.8	0
16	67845	235.9	0
16	67845	236	0
16	67845	236.1	0
16	67845	236.2	0
16	67845	236.3	0
16	67845	236.4	0
16	67845	236.5	0
16	67845	236.6	0
16	67845	236.7	0
16	67845	236.8	0
16	67845	236.9	0
16	67845	237	0
16	67845	237.1	0
16	67845	237.2	0
16	67845	237.3	0
16	67845	237.4	0
16	67845	237.5	0
16	67845	237.6	0
16	67845	237.7	0
16	67845	237.8	0
16	67845	237.9	0
16	67845	238	0
16	67845	238.1	0
16	67845	238.2	0
16	67845	238.3	0
16	67845	238.4	0
16	67845	238.5	0
16	67845	238.6	0
16	67845	238.7	0
16	67845	238.8	0
16	67845	238.9	0
16	67845	239	0
16	67845	239.1	0
16	67845	239.2	0
16	67845	239.3	0
16	67845	239.4	0
16	67845	239.5	0
16	67845	239.6	0
16	67845	239.7	0
16	67845	239.8	0
16	67845	239.9	0
16	67845	240	0
16	67845	240.1	0
16	67845	240.2	0
16	67845	240.3	0
16	67845	240.4	0
16	67845	240.5	0
16	67845	240.6	0
16	67845	240.7	0
16	67845	240.8	0
16	67845	240.9	0
16	67845	241	0
16	67845	241.1	0
16	67845	241.2	0
16	67845	241.3	0
16	67845	241.4	0
16	67845	241.5	0
16	67845	241.6	0
16	67845	241.7	0
16	67845	241.8	0
16	67845	241.9	0
16	67845	242	0
16	67845	242.1	0
16	67845	242.2	0
16	67845	242.3	0
16	67845	242.4	0
16	67845	242.5	0
16	67845	242.6	0
16	67845	242.7	0
16	67845	242.8	0
16	67845	242.9	0
16	67845	243	0
16	67845	243.1	0
16	67845	243.2	0
16	67845	243.3	0
16	67845	243.4	0
16	67845	243.5	0
16	67845	243.6	0
16	67845	243.7	0
16	67845	243.8	0
16	67845	243.9	0
16	67845	244	0
16	67845	244.1	0
16	67845	244.2	0
16	67845	244.3	0
16	67845	244.4	0
16	67845	244.5	0
16	67845	244.6	0
16	67845	244.7	0
16	67845	244.8	0
16	67845	244.9	0
16	67845	245	0
16	67845	245.1	0
16	67845	245.2	0
16	67845	245.3	0
16	67845	245.4	0
16	67845	245.5	0
16	67845	245.6	0
16	67845	245.7	0
16	67845	245.8	0
16	67845	245.9	0
16	67845	246	0
16	67845	246.1	0
16	67845	246.2	0
16	67845	246.3	0
16	67845	246.4	0
16	67845	246.5	0
16	67845	246.6	0
16	67845	246.7	0
16	67845	246.8	0
16	67845	246.9	0
16	67845	247	0
16	67845	247.1	0
16	67845	247.2	0
16	67845	247.3	0
16	67845	247.4	0
16	67845	247.5	0
16	67845	247.6	0
16	67845	247.7	0
16	67845	247.8	0
16	67845	247.9	0
16	67845	248	0
16	67845	248.1	0
16	67845	248.2	0
16	67845	248.3	0
16	67845	248.4	0
16	67845	248.5	0
16	67845	248.6	0
16	67845	248.7	0
16	67845	248.8	0
16	67845	248.9	0
16	67845	249	0
16	67845	249.1	0
16	67845	249.2	0
16	67845	249.3	0
16	67845	249.4	0
16	67845	249.5	0
16	67845	249.6	0
16	67845	249.7	0
16	67845	249.8	0
16	67845	249.9	0
16	67845	250	0
16	67845	250.1	0
16	67845	250.2	0
16	67845	250.3	0
16	67845	250.4	0
16	67845	250.5	0
16	67845	250.6	0
16	67845	250.7	0
16	67845	250.8	0
16	67845	250.9	0
16	67845	251	0
16	67845	251.1	0
16	67845	251.2	0
16	67845	251.3	0
16	67845	251.4	0
16	67845	251.5	0
16	67845	251.6	0
16	67845	251.7	0
16	67845	251.8	0
16	67845	251.9	0
16	67845	252	0
16	67845	252.1	0
16	67845	252.2	0
16	67845	252.3	0
16	67845	252.4	0
16	67845	252.5	0
16	67845	252.6	0
16	67845	252.7	0
16	67845	252.8	0
16	67845	252.9	0
16	67845	253	0
16	67845	253.1	0
16	67845	253.2	0
16	67845	253.3	0
16	67845	253.4	0
16	67845	253.5	0
16	67845	253.6	0
16	67845	253.7	0
16	67845	253.8	0
16	67845	253.9	0
16	67845	254	0
16	67845	254.1	0
16	67845	254.2	0
16	67845	254.3	0
16	67845	254.4	0
16	67845	254.5	0
16	67845	254.6	0
16	67845	254.7	0
16	67845	254.8	0
16	67845	254.9	0
16	67845	255	0
16	67845	255.1	0
16	67845	255.2	0
16	67845	255.3	0
16	67845	255.4	0
16	67845	255.5	0
16	67845	255.6	0
16	67845	255.7	0
16	67845	255.8	0
16	67845	255.9	0
16	67845	256	0
16	67845	256.1	0
16	67845	256.2	0
16	67845	256.3	0
16	67845	256.4	0
16	67845	256.5	0
16	67845	256.6	0
16	67845	256.7	0
16	67845	256.8	0
16	67845	256.9	0
16	67845	257	0
16	67845	257.1	0
16	67845	257.2	0
16	67845	257.3	0
16	67845	257.4	0
16	67845	257.5	0
16	67845	257.6	0
16	67845	257.7	0
16	67845	257.8	0
16	67845	257.9	0
16	67845	258	0
16	67845	258.1	0
16	67845	258.2	0
16	67845	258.3	0
16	67845	258.4	0
16	67845	258.5	0
16	67845	258.6	0
16	67845	258.7	0
16	67845	258.8	0
16	67845	258.9	0
16	67845	259	0
16	67845	259.1	0
16	67845	259.2	0
16	67845	259.3	0
16	67845	259.4	0
16	67845	259.5	0
16	67845	259.6	0
16	67845	259.7	0
16	67845	259.8	0
16	67845	259.9	0
16	67845	260	0
16	67845	260.1	0
16	67845	260.2	0
16	67845	260.3	0
16	67845	260.4	0
16	67845	260.5	0
16	67845	260.6	0
16	67845	260.7	0
16	67845	260.8	0
16	67845	260.9	0
16	67845	261	0
16	67845	261.1	0
16	67845	261.2	0
16	67845	261.3	0
16	67845	261.4	0
16	67845	261.5	0
16	67845	261.6	0
16	67845	261.7	0
16	67845	261.8	0
16	67845	261.9	0
16	67845	262	0
16	67845	262.1	0
16	67845	262.2	0
16	67845	262.3	0
16	67845	262.4	0
16	67845	262.5	0
16	67845	262.6	0
16	67845	262.7	0
16	67845	262.8	0
16	67845	262.9	0
16	67845	263	0
16	67845	263.1	0
16	67845	263.2	0
16	67845	263.3	0
16	67845	263.4	0
16	67845	263.5	0
16	67845	263.6	0
16	67845	263.7	0
16	67845	263.8	0
16	67845	263.9	0
16	67845	264	0
16	67845	264.1	0
16	67845	264.2	0
16	67845	264.3	0
16	67845	264.4	0
16	67845	264.5	0
16	67845	264.6	0
16	67845	264.7	0
16	67845	264.8	0
16	67845	264.9	0
16	67845	265	0
16	67845	265.1	0
16	67845	265.2	0
16	67845	265.3	0
16	67845	265.4	0
16	67845	265.5	0
16	67845	265.6	0
16	67845	265.7	0
16	67845	265.8	0
16	67845	265.9	0
16	67845	266	0
16	67845	266.1	0
16	67845	266.2	0
16	67845	266.3	0
16	67845	266.4	0
16	67845	266.5	0
16	67845	266.6	0
16	67845	266.7	0
16	67845	266.8	0
16	67845	266.9	0
16	67845	267	0
16	67845	267.1	0
16	67845	267.2	0
16	67845	267.3	0
16	67845	267.4	0
16	67845	267.5	0
16	67845	267.6	0
16	67845	267.7	0
16	67845	267.8	0
16	67845	267.9	0
16	67845	268	0
16	67845	268.1	0
16	67845	268.2	0
16	67845	268.3	0
16	67845	268.4	0
16	67845	268.5	0
16	67845	268.6	0
16	67845	268.7	0
16	67845	268.8	0
16	67845	268.9	0
16	67845	269	0
16	67845	269.1	0
16	67845	269.2	0
16	67845	269.3	0
16	67845	269.4	0
16	67845	269.5	0
16	67845	269.6	0
16	67845	269.7	0
16	67845	269.8	0
16	67845	269.9	0
16	67845	270	0
16	67845	270.1	0
16	67845	270.2	0
16	67845	270.3	0
16	67845	270.4	0
16	67845	270.5	0
16	67845	270.6	0
16	67845	270.7	0
16	67845	270.8	0
16	67845	270.9	0
16	67845	271	0
16	67845	271.1	0
16	67845	271.2	0
16	67845	271.3	0
16	67845	271.4	0
16	67845	271.5	0
16	67845	271.6	0
16	67845	271.7	0
16	67845	271.8	0
16	67845	271.9	0
16	67845	272	0
16	67845	272.1	0
16	67845	272.2	0
16	67845	272.3	0
16	67845	272.4	0
16	67845	272.5	0
16	67845	272.6	0
16	67845	272.7	0
16	67845	272.8	0
16	67845	272.9	0
16	67845	273	0
16	67845	273.1	0
16	67845	273.2	0
16	67845	273.3	0
16	67845	273.4	0
16	67845	273.5	0
16	67845	273.6	0
16	67845	273.7	0
16	67845	273.8	0
16	67845	273.9	0
16	67845	274	0
16	67845	274.1	0
16	67845	274.2	0
16	67845	274.3	0
16	67845	274.4	0
16	67845	274.5	0
16	67845	274.6	0
16	67845	274.7	0
16	67845	274.8	0
16	67845	274.9	0
16	67845	275	0
16	67845	275.1	0
16	67845	275.2	0
16	67845	275.3	0
16	67845	275.4	0
16	67845	275.5	0
16	67845	275.6	0
16	67845	275.7	0
16	67845	275.8	0
16	67845	275.9	0
16	67845	276	0
16	67845	276.1	0
16	67845	276.2	0
16	67845	276.3	0
16	67845	276.4	0
16	67845	276.5	0
16	67845	276.6	0
16	67845	276.7	0
16	67845	276.8	0
16	67845	276.9	0
16	67845	277	0
16	67845	277.1	0
16	67845	277.2	0
16	67845	277.3	0
16	67845	277.4	0
16	67845	277.5	0
16	67845	277.6	0
16	67845	277.7	0
16	67845	277.8	0
16	67845	277.9	0
16	67845	278	0
16	67845	278.1	0
16	67845	278.2	0
16	67845	278.3	0
16	67845	278.4	0
16	67845	278.5	0
16	67845	278.6	0
16	67845	278.7	0
16	67845	278.8	0
16	67845	278.9	0
16	67845	279	0
16	67845	279.1	0
16	67845	279.2	0
16	67845	279.3	0
16	67845	279.4	0
16	67845	279.5	0
16	67845	279.6	0
16	67845	279.7	0
16	67845	279.8	0
16	67845	279.9	0
16	67845	280	0
16	67845	280.1	0
16	67845	280.2	0
16	67845	280.3	0
16	67845	280.4	0
16	67845	280.5	0
16	67845	280.6	0
16	67845	280.7	0
16	67845	280.8	0
16	67845	280.9	0
16	67845	281	0
16	67845	281.1	0
16	67845	281.2	0
16	67845	281.3	0
16	67845	281.4	0
16	67845	281.5	0
16	67845	281.6	0
16	67845	281.7	0
16	67845	281.8	0
16	67845	281.9	0
16	67845	282	0
16	67845	282.1	0
16	67845	282.2	0
16	67845	282.3	0
16	67845	282.4	0
16	67845	282.5	0
16	67845	282.6	0
16	67845	282.7	0
16	67845	282.8	0
16	67845	282.9	0
16	67845	283	0
16	67845	283.1	0
16	67845	283.2	0
16	67845	283.3	0
16	67845	283.4	0
16	67845	283.5	0
16	67845	283.6	0
16	67845	283.7	0
16	67845	283.8	0
16	67845	283.9	0
16	67845	284	0
16	67845	284.1	0
16	67845	284.2	0
16	67845	284.3	0
16	67845	284.4	0
16	67845	284.5	0
16	67845	284.6	0
16	67845	284.7	0
16	67845	284.8	0
16	67845	284.9	0
16	67845	285	0
16	67845	285.1	0
16	67845	285.2	0
16	67845	285.3	0
16	67845	285.4	0
16	67845	285.5	0
16	67845	285.6	0
16	67845	285.7	0
16	67845	285.8	0
16	67845	285.9	0
16	67845	286	0
16	67845	286.1	0
16	67845	286.2	0
16	67845	286.3	0
16	67845	286.4	0
16	67845	286.5	0
16	67845	286.6	0
16	67845	286.7	0
16	67845	286.8	0
16	67845	286.9	0
16	67845	287	0
16	67845	287.1	0
16	67845	287.2	0
16	67845	287.3	0
16	67845	287.4	0
16	67845	287.5	0
16	67845	287.6	0
16	67845	287.7	0
16	67845	287.8	0
16	67845	287.9	0
16	67845	288	0
16	67845	288.1	0
16	67845	288.2	0
16	67845	288.3	0
16	67845	288.4	0
16	67845	288.5	0
16	67845	288.6	0
16	67845	288.7	0
16	67845	288.8	0
16	67845	288.9	0
16	67845	289	0
16	67845	289.1	0
16	67845	289.2	0
16	67845	289.3	0
16	67845	289.4	0
16	67845	289.5	0
16	67845	289.6	0
16	67845	289.7	0
16	67845	289.8	0
16	67845	289.9	0
16	67845	290	0
16	67845	290.1	0
16	67845	290.2	0
16	67845	290.3	0
16	67845	290.4	0
16	67845	290.5	0
16	67845	290.6	0
16	67845	290.7	0
16	67845	290.8	0
16	67845	290.9	0
16	67845	291	0
16	67845	291.1	0
16	67845	291.2	0
16	67845	291.3	0
16	67845	291.4	0
16	67845	291.5	0
16	67845	291.6	0
16	67845	291.7	0
16	67845	291.8	0
16	67845	291.9	0
16	67845	292	0
16	67845	292.1	0
16	67845	292.2	0
16	67845	292.3	0
16	67845	292.4	0
16	67845	292.5	0
16	67845	292.6	0
16	67845	292.7	0
16	67845	292.8	0
16	67845	292.9	0
16	67845	293	0
16	67845	293.1	0
16	67845	293.2	0
16	67845	293.3	0
16	67845	293.4	0
16	67845	293.5	0
16	67845	293.6	0
16	67845	293.7	0
16	67845	293.8	0
16	67845	293.9	0
16	67845	294	0
16	67845	294.1	0
16	67845	294.2	0
16	67845	294.3	0
16	67845	294.4	0
16	67845	294.5	0
16	67845	294.6	0
16	67845	294.7	0
16	67845	294.8	0
16	67845	294.9	0
16	67845	295	0
16	67845	295.1	0
16	67845	295.2	0
16	67845	295.3	0
16	67845	295.4	0
16	67845	295.5	0
16	67845	295.6	0
16	67845	295.7	0
16	67845	295.8	0
16	67845	295.9	0
16	67845	296	0
16	67845	296.1	0
16	67845	296.2	0
16	67845	296.3	0
16	67845	296.4	0
16	67845	296.5	0
16	67845	296.6	0
16	67845	296.7	0
16	67845	296.8	0
16	67845	296.9	0
16	67845	297	0
16	67845	297.1	0
16	67845	297.2	0
16	67845	297.3	0
16	67845	297.4	0
16	67845	297.5	0
16	67845	297.6	0
16	67845	297.7	0
16	67845	297.8	0
16	67845	297.9	0
16	67845	298	0
16	67845	298.1	0
16	67845	298.2	0
16	67845	298.3	0
16	67845	298.4	0
16	67845	298.5	0
16	67845	298.6	0
16	67845	298.7	0
16	67845	298.8	0
16	67845	298.9	0
16	67845	299	0
16	67845	299.1	0
16	67845	299.2	0
16	67845	299.3	0
16	67845	299.4	0
16	67845	299.5	0
16	67845	299.6	0
16	67845	299.7	0
16	67845	299.8	0
16	67845	299.9	0
16	67845	300	0
16	67845	300.1	0
16	67845	300.2	0
16	67845	300.3	0
16	67845	300.4	0
16	67845	300.5	0
16	67845	300.6	0
16	67845	300.7	0
16	67845	300.8	0
16	67845	300.9	0
16	67845	301	0
16	67845	301.1	0
16	67845	301.2	0
16	67845	301.3	0
16	67845	301.4	0
16	67845	301.5	0
16	67845	301.6	0
16	67845	301.7	0
16	67845	301.8	0
16	67845	301.9	0
16	67845	302	0
16	67845	302.1	0
16	67845	302.2	0
16	67845	302.3	0
16	67845	302.4	0
16	67845	302.5	0
16	67845	302.6	0
16	67845	302.7	0
16	67845	302.8	0
16	67845	302.9	0
16	67845	303	0
16	67845	303.1	0
16	67845	303.2	0
16	67845	303.3	0
16	67845	303.4	0
16	67845	303.5	0
16	67845	303.6	0
16	67845	303.7	0
16	67845	303.8	0
16	67845	303.9	0
16	67845	304	0
16	67845	304.1	0
16	67845	304.2	0
16	67845	304.3	0
16	67845	304.4	0
16	67845	304.5	0
16	67845	304.6	0
16	67845	304.7	0
16	67845	304.8	0
16	67845	304.9	0
16	67845	305	0
16	67845	305.1	0
16	67845	305.2	0
16	67845	305.3	0
16	67845	305.4	0
16	67845	305.5	0
16	67845	305.6	0
16	67845	305.7	0
16	67845	305.8	0
16	67845	305.9	0
16	67845	306	0
16	67845	306.1	0
16	67845	306.2	0
16	67845	306.3	0
16	67845	306.4	0
16	67845	306.5	0
16	67845	306.6	0
16	67845	306.7	0
16	67845	306.8	0
16	67845	306.9	0
16	67845	307	0
16	67845	307.1	0
16	67845	307.2	0
16	67845	307.3	0
16	67845	307.4	0
16	67845	307.5	0
16	67845	307.6	0
16	67845	307.7	0
16	67845	307.8	0
16	67845	307.9	0
16	67845	308	0
16	67845	308.1	0
16	67845	308.2	0
16	67845	308.3	0
16	67845	308.4	0
16	67845	308.5	0
16	67845	308.6	0
16	67845	308.7	0
16	67845	308.8	0
16	67845	308.9	0
16	67845	309	0
16	67845	309.1	0
16	67845	309.2	0
16	67845	309.3	0
16	67845	309.4	0
16	67845	309.5	0
16	67845	309.6	0
16	67845	309.7	0
16	67845	309.8	0
16	67845	309.9	0
16	67845	310	0
16	67845	310.1	0
16	67845	310.2	0
16	67845	310.3	0
16	67845	310.4	0
16	67845	310.5	0
16	67845	310.6	0
16	67845	310.7	0
16	67845	310.8	0
16	67845	310.9	0
16	67845	311	0
16	67845	311.1	0
16	67845	311.2	0
16	67845	311.3	0
16	67845	311.4	0
16	67845	311.5	0
16	67845	311.6	0
16	67845	311.7	0
16	67845	311.8	0
16	67845	311.9	0
16	67845	312	0
16	67845	312.1	0
16	67845	312.2	0
16	67845	312.3	0
16	67845	312.4	0
16	67845	312.5	0
16	67845	312.6	0
16	67845	312.7	0
16	67845	312.8	0
16	67845	312.9	0
16	67845	313	0
16	67845	313.1	0
16	67845	313.2	0
16	67845	313.3	0
16	67845	313.4	0
16	67845	313.5	0
16	67845	313.6	0
16	67845	313.7	0
16	67845	313.8	0
16	67845	313.9	0
16	67845	314	0
16	67845	314.1	0
16	67845	314.2	0
16	67845	314.3	0
16	67845	314.4	0
16	67845	314.5	0
16	67845	314.6	0
16	67845	314.7	0
16	67845	314.8	0
16	67845	314.9	0
16	67845	315	0
16	67845	315.1	0
16	67845	315.2	0
16	67845	315.3	0
16	67845	315.4	0
16	67845	315.5	0
16	67845	315.6	0
16	67845	315.7	0
16	67845	315.8	0
16	67845	315.9	0
16	67845	316	0
16	67845	316.1	0
16	67845	316.2	0
16	67845	316.3	0
16	67845	316.4	0
16	67845	316.5	0
16	67845	316.6	0
16	67845	316.7	0
16	67845	316.8	0
16	67845	316.9	0
16	67845	317	0
16	67845	317.1	0
16	67845	317.2	0
16	67845	317.3	0
16	67845	317.4	0
16	67845	317.5	0
16	67845	317.6	0
16	67845	317.7	0
16	67845	317.8	0
16	67845	317.9	0
16	67845	318	0
16	67845	318.1	0
16	67845	318.2	0
16	67845	318.3	0
16	67845	318.4	0
16	67845	318.5	0
16	67845	318.6	0
16	67845	318.7	0
16	67845	318.8	0
16	67845	318.9	0
16	67845	319	0
16	67845	319.1	0
16	67845	319.2	0
16	67845	319.3	0
16	67845	319.4	0
16	67845	319.5	0
16	67845	319.6	0
16	67845	319.7	0
16	67845	319.8	0
16	67845	319.9	0
16	67845	320	0
16	67845	320.1	0
16	67845	320.2	0
16	67845	320.3	0
16	67845	320.4	0
16	67845	320.5	0
16	67845	320.6	0
16	67845	320.7	0
16	67845	320.8	0
16	67845	320.9	0
16	67845	321	0
16	67845	321.1	0
16	67845	321.2	0
16	67845	321.3	0
16	67845	321.4	0
16	67845	321.5	0
16	67845	321.6	0
16	67845	321.7	0
16	67845	321.8	0
16	67845	321.9	0
16	67845	322	0
16	67845	322.1	0
16	67845	322.2	0
16	67845	322.3	0
16	67845	322.4	0
16	67845	322.5	0
16	67845	322.6	0
16	67845	322.7	0
16	67845	322.8	0
16	67845	322.9	0
16	67845	323	0
16	67845	323.1	0
16	67845	323.2	0
16	67845	323.3	0
16	67845	323.4	0
16	67845	323.5	0
16	67845	323.6	0
16	67845	323.7	0
16	67845	323.8	0
16	67845	323.9	0
16	67845	324	0
16	67845	324.1	0
16	67845	324.2	0
16	67845	324.3	0
16	67845	324.4	0
16	67845	324.5	0
16	67845	324.6	0
16	67845	324.7	0
16	67845	324.8	0
16	67845	324.9	0
16	67845	325	0
16	67845	325.1	0
16	67845	325.2	0
16	67845	325.3	0
16	67845	325.4	0
16	67845	325.5	0
16	67845	325.6	0
16	67845	325.7	0
16	67845	325.8	0
16	67845	325.9	0
16	67845	326	0
16	67845	326.1	0
16	67845	326.2	0
16	67845	326.3	0
16	67845	326.4	0
16	67845	326.5	0
16	67845	326.6	0
16	67845	326.7	0
16	67845	326.8	0
16	67845	326.9	0
16	67845	327	0
16	67845	327.1	0
16	67845	327.2	0
16	67845	327.3	0
16	67845	327.4	0
16	67845	327.5	0
16	67845	327.6	0
16	67845	327.7	0
16	67845	327.8	0
16	67845	327.9	0
16	67845	328	0
16	67845	328.1	0
16	67845	328.2	0
16	67845	328.3	0
16	67845	328.4	0
16	67845	328.5	0
16	67845	328.6	0
16	67845	328.7	0
16	67845	328.8	0
16	67845	328.9	0
16	67845	329	0
16	67845	329.1	0
16	67845	329.2	0
16	67845	329.3	0
16	67845	329.4	0
16	67845	329.5	0
16	67845	329.6	0
16	67845	329.7	0
16	67845	329.8	0
16	67845	329.9	0
16	67845	330	0
16	67845	330.1	0
16	67845	330.2	0
16	67845	330.3	0
16	67845	330.4	0
16	67845	330.5	0
16	67845	330.6	0
16	67845	330.7	0
16	67845	330.8	0
16	67845	330.9	0
16	67845	331	0
16	67845	331.1	0
16	67845	331.2	0
16	67845	331.3	0
16	67845	331.4	0
16	67845	331.5	0
16	67845	331.6	0
16	67845	331.7	0
16	67845	331.8	0
16	67845	331.9	0
16	67845	332	0
16	67845	332.1	0
16	67845	332.2	0
16	67845	332.3	0
16	67845	332.4	0
16	67845	332.5	0
16	67845	332.6	0
16	67845	332.7	0
16	67845	332.8	0
16	67845	332.9	0
16	67845	333	0
16	67845	333.1	0
16	67845	333.2	0
16	67845	333.3	0
16	67845	333.4	0
16	67845	333.5	0
16	67845	333.6	0
16	67845	333.7	0
16	67845	333.8	0
16	67845	333.9	0
16	67845	334	0
16	67845	334.1	0
16	67845	334.2	0
16	67845	334.3	0
16	67845	334.4	0
16	67845	334.5	0
16	67845	334.6	0
16	67845	334.7	0
16	67845	334.8	0
16	67845	334.9	0
16	67845	335	0
16	67845	335.1	0
16	67845	335.2	0
16	67845	335.3	0
16	67845	335.4	0
16	67845	335.5	0
16	67845	335.6	0
16	67845	335.7	0
16	67845	335.8	0
16	67845	335.9	0
16	67845	336	0
16	67845	336.1	0
16	67845	336.2	0
16	67845	336.3	0
16	67845	336.4	0
16	67845	336.5	0
16	67845	336.6	0
16	67845	336.7	0
16	67845	336.8	0
16	67845	336.9	0
16	67845	337	0
16	67845	337.1	0
16	67845	337.2	0
16	67845	337.3	0
16	67845	337.4	0
16	67845	337.5	0
16	67845	337.6	0
16	67845	337.7	0
16	67845	337.8	0
16	67845	337.9	0
16	67845	338	0
16	67845	338.1	0
16	67845	338.2	0
16	67845	338.3	0
16	67845	338.4	0
16	67845	338.5	0
16	67845	338.6	0
16	67845	338.7	0
16	67845	338.8	0
16	67845	338.9	0
16	67845	339	0
16	67845	339.1	0
16	67845	339.2	0
16	67845	339.3	0
16	67845	339.4	0
16	67845	339.5	0
16	67845	339.6	0
16	67845	339.7	0
16	67845	339.8	0
16	67845	339.9	0
16	67845	340	0
16	67845	340.1	0
16	67845	340.2	0
16	67845	340.3	0
16	67845	340.4	0
16	67845	340.5	0
16	67845	340.6	0
16	67845	340.7	0
16	67845	340.8	0
16	67845	340.9	0
16	67845	341	0
16	67845	341.1	0
16	67845	341.2	0
16	67845	341.3	0
16	67845	341.4	0
16	67845	341.5	0
16	67845	341.6	0
16	67845	341.7	0
16	67845	341.8	0
16	67845	341.9	0
16	67845	342	0
16	67845	342.1	0
16	67845	342.2	0
16	67845	342.3	0
16	67845	342.4	0
16	67845	342.5	0
16	67845	342.6	0
16	67845	342.7	0
16	67845	342.8	0
16	67845	342.9	0
16	67845	343	0
16	67845	343.1	0
16	67845	343.2	0
16	67845	343.3	0
16	67845	343.4	0
16	67845	343.5	0
16	67845	343.6	0
16	67845	343.7	0
16	67845	343.8	0
16	67845	343.9	0
16	67845	344	0
16	67845	344.1	0
16	67845	344.2	0
16	67845	344.3	0
16	67845	344.4	0
16	67845	344.5	0
16	67845	344.6	0
16	67845	344.7	0
16	67845	344.8	0
16	67845	344.9	0
16	67845	345	0
16	67845	345.1	0
16	67845	345.2	0
16	67845	345.3	0
16	67845	345.4	0
16	67845	345.5	0
16	67845	345.6	0
16	67845	345.7	0
16	67845	345.8	0
16	67845	345.9	0
16	67845	346	0
16	67845	346.1	0
16	67845	346.2	0
16	67845	346.3	0
16	67845	346.4	0
16	67845	346.5	0
16	67845	346.6	0
16	67845	346.7	0
16	67845	346.8	0
16	67845	346.9	0
16	67845	347	0
16	67845	347.1	0
16	67845	347.2	0
16	67845	347.3	0
16	67845	347.4	0
16	67845	347.5	0
16	67845	347.6	0
16	67845	347.7	0
16	67845	347.8	0
16	67845	347.9	0
16	67845	348	0
16	67845	348.1	0
16	67845	348.2	0
16	67845	348.3	0
16	67845	348.4	0
16	67845	348.5	0
16	67845	348.6	0
16	67845	348.7	0
16	67845	348.8	0
16	67845	348.9	0
16	67845	349	0
16	67845	349.1	0
16	67845	349.2	0
16	67845	349.3	0
16	67845	349.4	0
16	67845	349.5	0
16	67845	349.6	0
16	67845	349.7	0
16	67845	349.8	0
16	67845	349.9	0
16	67845	350	0
16	67845	350.1	0
16	67845	350.2	0
16	67845	350.3	0
16	67845	350.4	0
16	67845	350.5	0
16	67845	350.6	0
16	67845	350.7	0
16	67845	350.8	0
16	67845	350.9	0
16	67845	351	0
16	67845	351.1	0
16	67845	351.2	0
16	67845	351.3	0
16	67845	351.4	0
16	67845	351.5	0
16	67845	351.6	0
16	67845	351.7	0
16	67845	351.8	0
16	67845	351.9	0
16	67845	352	0
16	67845	352.1	0
16	67845	352.2	0
16	67845	352.3	0
16	67845	352.4	0
16	67845	352.5	0
16	67845	352.6	0
16	67845	352.7	0
16	67845	352.8	0
16	67845	352.9	0
16	67845	353	0
16	67845	353.1	0
16	67845	353.2	0
16	67845	353.3	0
16	67845	353.4	0
16	67845	353.5	0
16	67845	353.6	0
16	67845	353.7	0
16	67845	353.8	0
16	67845	353.9	0
16	67845	354	0
16	67845	354.1	0
16	67845	354.2	0
16	67845	354.3	0
16	67845	354.4	0
16	67845	354.5	0
16	67845	354.6	0
16	67845	354.7	0
16	67845	354.8	0
16	67845	354.9	0
16	67845	355	0
16	67845	355.1	0
16	67845	355.2	0
16	67845	355.3	0
16	67845	355.4	0
16	67845	355.5	0
16	67845	355.6	0
16	67845	355.7	0
16	67845	355.8	0
16	67845	355.9	0
16	67845	356	0
16	67845	356.1	0
16	67845	356.2	0
16	67845	356.3	0
16	67845	356.4	0
16	67845	356.5	0
16	67845	356.6	0
16	67845	356.7	0
16	67845	356.8	0
16	67845	356.9	0
16	67845	357	0
16	67845	357.1	0
16	67845	357.2	0
16	67845	357.3	0
16	67845	357.4	0
16	67845	357.5	0
16	67845	357.6	0
16	67845	357.7	0
16	67845	357.8	0
16	67845	357.9	0
16	67845	358	0
16	67845	358.1	0
16	67845	358.2	0
16	67845	358.3	0
16	67845	358.4	0
16	67845	358.5	0
16	67845	358.6	0
16	67845	358.7	0
16	67845	358.8	0
16	67845	358.9	0
16	67845	359	0
16	67845	359.1	0
16	67845	359.2	0
16	67845	359.3	0
16	67845	359.4	0
16	67845	359.5	0
16	67845	359.6	0
16	67845	359.7	0
16	67845	359.8	0
16	67845	359.9	0
16	67845	360	0
16	67845	360.1	0
16	67845	360.2	0
16	67845	360.3	0
16	67845	360.4	0
16	67845	360.5	0
16	67845	360.6	0
16	67845	360.7	0
16	67845	360.8	0
16	67845	360.9	0
16	67845	361	0
16	67845	361.1	0
16	67845	361.2	0
16	67845	361.3	0
16	67845	361.4	0
16	67845	361.5	0
16	67845	361.6	0
16	67845	361.7	0
16	67845	361.8	0
16	67845	361.9	0
16	67845	362	0
16	67845	362.1	0
16	67845	362.2	0
16	67845	362.3	0
16	67845	362.4	0
16	67845	362.5	0
16	67845	362.6	0
16	67845	362.7	0
16	67845	362.8	0
16	67845	362.9	0
16	67845	363	0
16	67845	363.1	0
16	67845	363.2	0
16	67845	363.3	0
16	67845	363.4	0
16	67845	363.5	0
16	67845	363.6	0
16	67845	363.7	0
16	67845	363.8	0
16	67845	363.9	0
16	67845	364	0
16	67845	364.1	0
16	67845	364.2	0
16	67845	364.3	0
16	67845	364.4	0
16	67845	364.5	0
16	67845	364.6	0
16	67845	364.7	0
16	67845	364.8	0
16	67845	364.9	0
16	67845	365	0
16	67845	365.1	0
16	67845	365.2	0
16	67845	365.3	0
16	67845	365.4	0
16	67845	365.5	0
16	67845	365.6	0
16	67845	365.7	0
16	67845	365.8	0
16	67845	365.9	0
16	67845	366	0
16	67845	366.1	0
16	67845	366.2	0
16	67845	366.3	0
16	67845	366.4	0
16	67845	366.5	0
16	67845	366.6	0
16	67845	366.7	0
16	67845	366.8	0
16	67845	366.9	0
16	67845	367	0
16	67845	367.1	0
16	67845	367.2	0
16	67845	367.3	0
16	67845	367.4	0
16	67845	367.5	0
16	67845	367.6	0
16	67845	367.7	0
16	67845	367.8	0
16	67845	367.9	0
16	67845	368	0
16	67845	368.1	0
16	67845	368.2	0
16	67845	368.3	0
16	67845	368.4	0
16	67845	368.5	0
16	67845	368.6	0
16	67845	368.7	0
16	67845	368.8	0
16	67845	368.9	0
16	67845	369	0
16	67845	369.1	0
16	67845	369.2	0
16	67845	369.3	0
16	67845	369.4	0
16	67845	369.5	0
16	67845	369.6	0
16	67845	369.7	0
16	67845	369.8	0
16	67845	369.9	0
16	67845	370	0
16	67845	370.1	0
16	67845	370.2	0
16	67845	370.3	0
16	67845	370.4	0
16	67845	370.5	0
16	67845	370.6	0
16	67845	370.7	0
16	67845	370.8	0
16	67845	370.9	0
16	67845	371	0
16	67845	371.1	0
16	67845	371.2	0
16	67845	371.3	0
16	67845	371.4	0
16	67845	371.5	0
16	67845	371.6	0
16	67845	371.7	0
16	67845	371.8	0
16	67845	371.9	0
16	67845	372	0
16	67845	372.1	0
16	67845	372.2	0
16	67845	372.3	0
16	67845	372.4	0
16	67845	372.5	0
16	67845	372.6	0
16	67845	372.7	0
16	67845	372.8	0
16	67845	372.9	0
16	67845	373	0
16	67845	373.1	0
16	67845	373.2	0
16	67845	373.3	0
16	67845	373.4	0
16	67845	373.5	0
16	67845	373.6	0
16	67845	373.7	0
16	67845	373.8	0
16	67845	373.9	0
16	67845	374	0
16	67845	374.1	0
16	67845	374.2	0
16	67845	374.3	0
16	67845	374.4	0
16	67845	374.5	0
16	67845	374.6	0
16	67845	374.7	0
16	67845	374.8	0
16	67845	374.9	0
16	67845	375	0
16	67845	375.1	0
16	67845	375.2	0
16	67845	375.3	0
16	67845	375.4	0
16	67845	375.5	0
16	67845	375.6	0
16	67845	375.7	0
16	67845	375.8	0
16	67845	375.9	0
16	67845	376	0
16	67845	376.1	0
16	67845	376.2	0
16	67845	376.3	0
16	67845	376.4	0
16	67845	376.5	0
16	67845	376.6	0
16	67845	376.7	0
16	67845	376.8	0
16	67845	376.9	0
16	67845	377	0
16	67845	377.1	0
16	67845	377.2	0
16	67845	377.3	0
16	67845	377.4	0
16	67845	377.5	0
16	67845	377.6	0
16	67845	377.7	0
16	67845	377.8	0
16	67845	377.9	0
16	67845	378	0
16	67845	378.1	0
16	67845	378.2	0
16	67845	378.3	0
16	67845	378.4	0
16	67845	378.5	0
16	67845	378.6	0
16	67845	378.7	0
16	67845	378.8	0
16	67845	378.9	0
16	67845	379	0
16	67845	379.1	0
16	67845	379.2	0
16	67845	379.3	0
16	67845	379.4	0
16	67845	379.5	0
16	67845	379.6	0
16	67845	379.7	0
16	67845	379.8	0
16	67845	379.9	0
16	67845	380	0
16	67845	380.1	0
16	67845	380.2	0
16	67845	380.3	0
16	67845	380.4	0
16	67845	380.5	0
16	67845	380.6	0
16	67845	380.7	0
16	67845	380.8	0
16	67845	380.9	0
16	67845	381	0
16	67845	381.1	0
16	67845	381.2	0
16	67845	381.3	0
16	67845	381.4	0
16	67845	381.5	0
16	67845	381.6	0
16	67845	381.7	0
16	67845	381.8	0
16	67845	381.9	0
16	67845	382	0
16	67845	382.1	0
16	67845	382.2	0
16	67845	382.3	0
16	67845	382.4	0
16	67845	382.5	0
16	67845	382.6	0
16	67845	382.7	0
16	67845	382.8	0
16	67845	382.9	0
16	67845	383	0
16	67845	383.1	0
16	67845	383.2	0
16	67845	383.3	0
16	67845	383.4	0
16	67845	383.5	0
16	67845	383.6	0
16	67845	383.7	0
16	67845	383.8	0
16	67845	383.9	0
16	67845	384	0
16	67845	384.1	0
16	67845	384.2	0
16	67845	384.3	0
16	67845	384.4	0
16	67845	384.5	0
16	67845	384.6	0
16	67845	384.7	0
16	67845	384.8	0
16	67845	384.9	0
16	67845	385	0
16	67845	385.1	0
16	67845	385.2	0
16	67845	385.3	0
16	67845	385.4	0
16	67845	385.5	0
16	67845	385.6	0
16	67845	385.7	0
16	67845	385.8	0
16	67845	385.9	0
16	67845	386	0
16	67845	386.1	0
16	67845	386.2	0
16	67845	386.3	0
16	67845	386.4	0
16	67845	386.5	0
16	67845	386.6	0
16	67845	386.7	0
16	67845	386.8	0
16	67845	386.9	0
16	67845	387	0
16	67845	387.1	0
16	67845	387.2	0
16	67845	387.3	0
16	67845	387.4	0
16	67845	387.5	0
16	67845	387.6	0
16	67845	387.7	0
16	67845	387.8	0
16	67845	387.9	0
16	67845	388	0
16	67845	388.1	0
16	67845	388.2	0
16	67845	388.3	0
16	67845	388.4	0
16	67845	388.5	0
16	67845	388.6	0
16	67845	388.7	0
16	67845	388.8	0
16	67845	388.9	0
16	67845	389	0
16	67845	389.1	0
16	67845	389.2	0
16	67845	389.3	0
16	67845	389.4	0
16	67845	389.5	0
16	67845	389.6	0
16	67845	389.7	0
16	67845	389.8	0
16	67845	389.9	0
16	67845	390	0
16	67845	390.1	0
16	67845	390.2	0
16	67845	390.3	0
16	67845	390.4	0
16	67845	390.5	0
16	67845	390.6	0
16	67845	390.7	0
16	67845	390.8	0
16	67845	390.9	0
16	67845	391	0
16	67845	391.1	0
16	67845	391.2	0
16	67845	391.3	0
16	67845	391.4	0
16	67845	391.5	0
16	67845	391.6	0
16	67845	391.7	0
16	67845	391.8	0
16	67845	391.9	0
16	67845	392	0
16	67845	392.1	0
16	67845	392.2	0
16	67845	392.3	0
16	67845	392.4	0
16	67845	392.5	0
16	67845	392.6	0
16	67845	392.7	0
16	67845	392.8	0
16	67845	392.9	0
16	67845	393	0
16	67845	393.1	0
16	67845	393.2	0
16	67845	393.3	0
16	67845	393.4	0
16	67845	393.5	0
16	67845	393.6	0
16	67845	393.7	0
16	67845	393.8	0
16	67845	393.9	0
16	67845	394	0
16	67845	394.1	0
16	67845	394.2	0
16	67845	394.3	0
16	67845	394.4	0
16	67845	394.5	0
16	67845	394.6	0
16	67845	394.7	0
16	67845	394.8	0
16	67845	394.9	0
16	67845	395	0
16	67845	395.1	0
16	67845	395.2	0
16	67845	395.3	0
16	67845	395.4	0
16	67845	395.5	0
16	67845	395.6	0
16	67845	395.7	0
16	67845	395.8	0
16	67845	395.9	0
16	67845	396	0
16	67845	396.1	0
16	67845	396.2	0
16	67845	396.3	0
16	67845	396.4	0
16	67845	396.5	0
16	67845	396.6	0
16	67845	396.7	0
16	67845	396.8	0
16	67845	396.9	0
16	67845	397	0
16	67845	397.1	0
16	67845	397.2	0
16	67845	397.3	0
16	67845	397.4	0
16	67845	397.5	0
16	67845	397.6	0
16	67845	397.7	0
16	67845	397.8	0
16	67845	397.9	0
16	67845	398	0
16	67845	398.1	0
16	67845	398.2	0
16	67845	398.3	0
16	67845	398.4	0
16	67845	398.5	0
16	67845	398.6	0
16	67845	398.7	0
16	67845	398.8	0
16	67845	398.9	0
16	67845	399	0
16	67845	399.1	0
16	67845	399.2	0
16	67845	399.3	0
16	67845	399.4	0
16	67845	399.5	0
16	67845	399.6	0
16	67845	399.7	0
16	67845	399.8	0
16	67845	399.9	0
16	67845	400	0
16	67845	400.1	0
16	67845	400.2	0
16	67845	400.3	0
16	67845	400.4	0
16	67845	400.5	0
16	67845	400.6	0
16	67845	400.7	0
16	67845	400.8	0
16	67845	400.9	0
16	67845	401	0
16	67845	401.1	0
16	67845	401.2	0
16	67845	401.3	0
16	67845	401.4	0
16	67845	401.5	0
16	67845	401.6	0
16	67845	401.7	0
16	67845	401.8	0
16	67845	401.9	0
16	67845	402	0
16	67845	402.1	0
16	67845	402.2	0
16	67845	402.3	0
16	67845	402.4	0
16	67845	402.5	0
16	67845	402.6	0
16	67845	402.7	0
16	67845	402.8	0
16	67845	402.9	0
16	67845	403	0
16	67845	403.1	0
16	67845	403.2	0
16	67845	403.3	0
16	67845	403.4	0
16	67845	403.5	0
16	67845	403.6	0
16	67845	403.7	0
16	67845	403.8	0
16	67845	403.9	0
16	67845	404	0
16	67845	404.1	0
16	67845	404.2	0
16	67845	404.3	0
16	67845	404.4	0
16	67845	404.5	0
16	67845	404.6	0
16	67845	404.7	0
16	67845	404.8	0
16	67845	404.9	0
16	67845	405	0
16	67845	405.1	0
16	67845	405.2	0
16	67845	405.3	0
16	67845	405.4	0
16	67845	405.5	0
16	67845	405.6	0
16	67845	405.7	0
16	67845	405.8	0
16	67845	405.9	0
16	67845	406	0
16	67845	406.1	0
16	67845	406.2	0
16	67845	406.3	0
16	67845	406.4	0
16	67845	406.5	0
16	67845	406.6	0
16	67845	406.7	0
16	67845	406.8	0
16	67845	406.9	0
16	67845	407	0
16	67845	407.1	0
16	67845	407.2	0
16	67845	407.3	0
16	67845	407.4	0
16	67845	407.5	0
16	67845	407.6	0
16	67845	407.7	0
16	67845	407.8	0
16	67845	407.9	0
16	67845	408	0
16	67845	408.1	0
16	67845	408.2	0
16	67845	408.3	0
16	67845	408.4	0
16	67845	408.5	0
16	67845	408.6	0
16	67845	408.7	0
16	67845	408.8	0
16	67845	408.9	0
16	67845	409	0
16	67845	409.1	0
16	67845	409.2	0
16	67845	409.3	0
16	67845	409.4	0
16	67845	409.5	0
16	67845	409.6	0
16	67845	409.7	0
16	67845	409.8	0
16	67845	409.9	0
16	67845	410	0
16	67845	410.1	0
16	67845	410.2	0
16	67845	410.3	0
16	67845	410.4	0
16	67845	410.5	0
16	67845	410.6	0
16	67845	410.7	0
16	67845	410.8	0
16	67845	410.9	0
16	67845	411	0
16	67845	411.1	0
16	67845	411.2	0
16	67845	411.3	0
16	67845	411.4	0
16	67845	411.5	0
16	67845	411.6	0
16	67845	411.7	0
16	67845	411.8	0
16	67845	411.9	0
16	67845	412	0
16	67845	412.1	0
16	67845	412.2	0
16	67845	412.3	0
16	67845	412.4	0
16	67845	412.5	0
16	67845	412.6	0
16	67845	412.7	0
16	67845	412.8	0
16	67845	412.9	0
16	67845	413	0
16	67845	413.1	0
16	67845	413.2	0
16	67845	413.3	0
16	67845	413.4	0
16	67845	413.5	0
16	67845	413.6	0
16	67845	413.7	0
16	67845	413.8	0
16	67845	413.9	0
16	67845	414	0
16	67845	414.1	0
16	67845	414.2	0
[...]
21	67845	1590.4	0
21	67845	1590.5	0
21	67845	1590.6	0
21	67845	1590.7	0
21	67845	1590.8	0
21	67845	1590.9	0
21	67845	1591	0
21	67845	1591.1	0
21	67845	1591.2	0
21	67845	1591.3	0
21	67845	1591.4	0
21	67845	1591.5	0
21	67845	1591.6	0
21	67845	1591.7	0
21	67845	1591.8	0
21	67845	1591.9	0
21	67845	1592	0
21	67845	1592.1	0
21	67845	1592.2	0
21	67845	1592.3	0
21	67845	1592.4	0
21	67845	1592.5	0
21	67845	1592.6	0
21	67845	1592.7	0
21	67845	1592.8	0
21	67845	1592.9	0
21	67845	1593	0
21	67845	1593.1	0
21	67845	1593.2	0
21	67845	1593.3	0
21	67845	1593.4	0
21	67845	1593.5	0
21	67845	1593.6	0
21	67845	1593.7	0
21	67845	1593.8	0
21	67845	1593.9	0
21	67845	1594	0
21	67845	1594.1	0
21	67845	1594.2	0
21	67845	1594.3	0
21	67845	1594.4	0
21	67845	1594.5	0
21	67845	1594.6	0
21	67845	1594.7	0
21	67845	1594.8	0
21	67845	1594.9	0
21	67845	1595	0
21	67845	1595.1	0
21	67845	1595.2	0
21	67845	1595.3	0
21	67845	1595.4	0
21	67845	1595.5	0
21	67845	1595.6	0
21	67845	1595.7	0
21	67845	1595.8	0
21	67845	1595.9	0
21	67845	1596	0
21	67845	1596.1	0
21	67845	1596.2	0
21	67845	1596.3	0
21	67845	1596.4	0
21	67845	1596.5	0
21	67845	1596.6	0
21	67845	1596.7	0
21	67845	1596.8	0
21	67845	1596.9	0
21	67845	1597	0
21	67845	1597.1	0
21	67845	1597.2	0
21	67845	1597.3	0
21	67845	1597.4	0
21	67845	1597.5	0
21	67845	1597.6	0
21	67845	1597.7	0
21	67845	1597.8	0
21	67845	1597.9	0
21	67845	1598	0
21	67845	1598.1	0
21	67845	1598.2	0
21	67845	1598.3	0
21	67845	1598.4	0
21	67845	1598.5	0
21	67845	1598.6	0
21	67845	1598.7	0
21	67845	1598.8	0
21	67845	1598.9	0
21	67845	1599	0
21	67845	1599.1	0
21	67845	1599.2	0
21	67845	1599.3	0
21	67845	1599.4	0
21	67845	1599.5	0
21	67845	1599.6	0
21	67845	1599.7	0
21	67845	1599.8	0
21	67845	1599.9	0
21	67845	1600	0
21	67845	1600.1	0
21	67845	1600.2	0
21	67845	1600.3	0
21	67845	1600.4	0
21	67845	1600.5	0
21	67845	1600.6	0
21	67845	1600.7	0
21	67845	1600.8	0
21	67845	1600.9	0
21	67845	1601	0
21	67845	1601.1	0
21	67845	1601.2	0
21	67845	1601.3	0
21	67845	1601.4	0
21	67845	1601.5	0
21	67845	1601.6	0
21	67845	1601.7	0
21	67845	1601.8	0
21	67845	1601.9	0
21	67845	1602	0
21	67845	1602.1	0
21	67845	1602.2	0
21	67845	1602.3	0
21	67845	1602.4	0
21	67845	1602.5	0
21	67845	1602.6	0
21	67845	1602.7	0
21	67845	1602.8	0
21	67845	1602.9	0
21	67845	1603	0
21	67845	1603.1	0
21	67845	1603.2	0
21	67845	1603.3	0
21	67845	1603.4	0
21	67845	1603.5	0
21	67845	1603.6	0
21	67845	1603.7	0
21	67845	1603.8	0
21	67845	1603.9	0
21	67845	1604	0
21	67845	1604.1	0
21	67845	1604.2	0
21	67845	1604.3	0
21	67845	1604.4	0
21	67845	1604.5	0
21	67845	1604.6	0
21	67845	1604.7	0
21	67845	1604.8	0
21	67845	1604.9	0
21	67845	1605	0
21	67845	1605.1	0
21	67845	1605.2	0
21	67845	1605.3	0
21	67845	1605.4	0
21	67845	1605.5	0
21	67845	1605.6	0
21	67845	1605.7	0
21	67845	1605.8	0
21	67845	1605.9	0
21	67845	1606	0
21	67845	1606.1	0
21	67845	1606.2	0
21	67845	1606.3	0
21	67845	1606.4	0
21	67845	1606.5	0
21	67845	1606.6	0
21	67845	1606.7	0
21	67845	1606.8	0
21	67845	1606.9	0
21	67845	1607	0
21	67845	1607.1	0
21	67845	1607.2	0
21	67845	1607.3	0
21	67845	1607.4	0
21	67845	1607.5	0
21	67845	1607.6	0
21	67845	1607.7	0
21	67845	1607.8	0
21	67845	1607.9	0
21	67845	1608	0
21	67845	1608.1	0
21	67845	1608.2	0
21	67845	1608.3	0
21	67845	1608.4	0
21	67845	1608.5	0
21	67845	1608.6	0
21	67845	1608.7	0
21	67845	1608.8	0
21	67845	1608.9	0
21	67845	1609	0
21	67845	1609.1	0
21	67845	1609.2	0
21	67845	1609.3	0
21	67845	1609.4	0
21	67845	1609.5	0
21	67845	1609.6	0
21	67845	1609.7	0
21	67845	1609.8	0
21	67845	1609.9	0
21	67845	1610	0
21	67845	1610.1	0
21	67845	1610.2	0
21	67845	1610.3	0
21	67845	1610.4	0
21	67845	1610.5	0
21	67845	1610.6	0
21	67845	1610.7	0
21	67845	1610.8	0
21	67845	1610.9	0
21	67845	1611	0
21	67845	1611.1	0
21	67845	1611.2	0
21	67845	1611.3	0
21	67845	1611.4	0
21	67845	1611.5	0
21	67845	1611.6	0
21	67845	1611.7	0
21	67845	1611.8	0
21	67845	1611.9	0
21	67845	1612	0
21	67845	1612.1	0
21	67845	1612.2	0
21	67845	1612.3	0
21	67845	1612.4	0
21	67845	1612.5	0
21	67845	1612.6	0
21	67845	1612.7	0
21	67845	1612.8	0
21	67845	1612.9	0
21	67845	1613	0
21	67845	1613.1	0
21	67845	1613.2	0
21	67845	1613.3	0
21	67845	1613.4	0
21	67845	1613.5	0
21	67845	1613.6	0
21	67845	1613.7	0
21	67845	1613.8	0
21	67845	1613.9	0
21	67845	1614	0
21	67845	1614.1	0
21	67845	1614.2	0
21	67845	1614.3	0
21	67845	1614.4	0
21	67845	1614.5	0
21	67845	1614.6	0
21	67845	1614.7	0
21	67845	1614.8	0
21	67845	1614.9	0
21	67845	1615	0
21	67845	1615.1	0
21	67845	1615.2	0
21	67845	1615.3	0
21	67845	1615.4	0
21	67845	1615.5	0
21	67845	1615.6	0
21	67845	1615.7	0
21	67845	1615.8	0
21	67845	1615.9	0
21	67845	1616	0
21	67845	1616.1	0
21	67845	1616.2	0
21	67845	1616.3	0
21	67845	1616.4	0
21	67845	1616.5	0
21	67845	1616.6	0
21	67845	1616.7	0
21	67845	1616.8	0
21	67845	1616.9	0
21	67845	1617	0
21	67845	1617.1	0
21	67845	1617.2	0
21	67845	1617.3	0
21	67845	1617.4	0
21	67845	1617.5	0
21	67845	1617.6	0
21	67845	1617.7	0
21	67845	1617.8	0
21	67845	1617.9	0
21	67845	1618	0
21	67845	1618.1	0
21	67845	1618.2	0
21	67845	1618.3	0
21	67845	1618.4	0
21	67845	1618.5	0
21	67845	1618.6	0
21	67845	1618.7	0
21	67845	1618.8	0
21	67845	1618.9	0
21	67845	1619	0
21	67845	1619.1	0
21	67845	1619.2	0
21	67845	1619.3	0
21	67845	1619.4	0
21	67845	1619.5	0
21	67845	1619.6	0
21	67845	1619.7	0
21	67845	1619.8	0
21	67845	1619.9	0
21	67845	1620	0
21	67845	1620.1	0
21	67845	1620.2	0
21	67845	1620.3	0
21	67845	1620.4	0
21	67845	1620.5	0
21	67845	1620.6	0
21	67845	1620.7	0
21	67845	1620.8	0
21	67845	1620.9	0
21	67845	1621	0
21	67845	1621.1	0
21	67845	1621.2	0
21	67845	1621.3	0
21	67845	1621.4	0
21	67845	1621.5	0
21	67845	1621.6	0
21	67845	1621.7	0
21	67845	1621.8	0
21	67845	1621.9	0
21	67845	1622	0
21	67845	1622.1	0
21	67845	1622.2	0
21	67845	1622.3	0
21	67845	1622.4	0
21	67845	1622.5	0
21	67845	1622.6	0
21	67845	1622.7	0
21	67845	1622.8	0
21	67845	1622.9	0
21	67845	1623	0
21	67845	1623.1	0
21	67845	1623.2	0
21	67845	1623.3	0
21	67845	1623.4	0
21	67845	1623.5	0
21	67845	1623.6	0
21	67845	1623.7	0
21	67845	1623.8	0
21	67845	1623.9	0
21	67845	1624	0
21	67845	1624.1	0
21	67845	1624.2	0
21	67845	1624.3	0
21	67845	1624.4	0
21	67845	1624.5	0
21	67845	1624.6	0
21	67845	1624.7	0
21	67845	1624.8	0
21	67845	1624.9	0
21	67845	1625	0
21	67845	1625.1	0
21	67845	1625.2	0
21	67845	1625.3	0
21	67845	1625.4	0
21	67845	1625.5	0
21	67845	1625.6	0
21	67845	1625.7	0
21	67845	1625.8	0
21	67845	1625.9	0
21	67845	1626	0
21	67845	1626.1	0
21	67845	1626.2	0
21	67845	1626.3	0
21	67845	1626.4	0
21	67845	1626.5	0
21	67845	1626.6	0
21	67845	1626.7	0
21	67845	1626.8	0
21	67845	1626.9	0
21	67845	1627	0
21	67845	1627.1	0
21	67845	1627.2	0
21	67845	1627.3	0
21	67845	1627.4	0
21	67845	1627.5	0
21	67845	1627.6	0
21	67845	1627.7	0
21	67845	1627.8	0
21	67845	1627.9	0
21	67845	1628	0
21	67845	1628.1	0
21	67845	1628.2	0
21	67845	1628.3	0
21	67845	1628.4	0
21	67845	1628.5	0
21	67845	1628.6	0
21	67845	1628.7	0
21	67845	1628.8	0
21	67845	1628.9	0
21	67845	1629	0
21	67845	1629.1	0
21	67845	1629.2	0
21	67845	1629.3	0
21	67845	1629.4	0
21	67845	1629.5	0
21	67845	1629.6	0
21	67845	1629.7	0
21	67845	1629.8	0
21	67845	1629.9	0
21	67845	1630	0
21	67845	1630.1	0
21	67845	1630.2	0
21	67845	1630.3	0
21	67845	1630.4	0
21	67845	1630.5	0
21	67845	1630.6	0
21	67845	1630.7	0
21	67845	1630.8	0
21	67845	1630.9	0
21	67845	1631	0
21	67845	1631.1	0
21	67845	1631.2	0
21	67845	1631.3	0
21	67845	1631.4	0
21	67845	1631.5	0
21	67845	1631.6	0
21	67845	1631.7	0
21	67845	1631.8	0
21	67845	1631.9	0
21	67845	1632	0
21	67845	1632.1	0
21	67845	1632.2	0
21	67845	1632.3	0
21	67845	1632.4	0
21	67845	1632.5	0
21	67845	1632.6	0
21	67845	1632.7	0
21	67845	1632.8	0
21	67845	1632.9	0
21	67845	1633	0
21	67845	1633.1	0
21	67845	1633.2	0
21	67845	1633.3	0
21	67845	1633.4	0
21	67845	1633.5	0
21	67845	1633.6	0
21	67845	1633.7	0
21	67845	1633.8	0
21	67845	1633.9	0
21	67845	1634	0
21	67845	1634.1	0
21	67845	1634.2	0
21	67845	1634.3	0
21	67845	1634.4	0
21	67845	1634.5	0
21	67845	1634.6	0
21	67845	1634.7	0
21	67845	1634.8	0
21	67845	1634.9	0
21	67845	1635	0
21	67845	1635.1	0
21	67845	1635.2	0
21	67845	1635.3	0
21	67845	1635.4	0
21	67845	1635.5	0
21	67845	1635.6	0
21	67845	1635.7	0
21	67845	1635.8	0
21	67845	1635.9	0
21	67845	1636	0
21	67845	1636.1	0
21	67845	1636.2	0
21	67845	1636.3	0
21	67845	1636.4	0
21	67845	1636.5	0
21	67845	1636.6	0
21	67845	1636.7	0
21	67845	1636.8	0
21	67845	1636.9	0
21	67845	1637	0
21	67845	1637.1	0
21	67845	1637.2	0
21	67845	1637.3	0
21	67845	1637.4	0
21	67845	1637.5	0
21	67845	1637.6	0
21	67845	1637.7	0
21	67845	1637.8	0
21	67845	1637.9	0
21	67845	1638	0
21	67845	1638.1	0
21	67845	1638.2	0
21	67845	1638.3	0
21	67845	1638.4	0
21	67845	1638.5	0
21	67845	1638.6	0
21	67845	1638.7	0
21	67845	1638.8	0
21	67845	1638.9	0
21	67845	1639	0
21	67845	1639.1	0
21	67845	1639.2	0
21	67845	1639.3	0
21	67845	1639.4	0
21	67845	1639.5	0
21	67845	1639.6	0
21	67845	1639.7	0
21	67845	1639.8	0
21	67845	1639.9	0
21	67845	1640	0
21	67845	1640.1	0
21	67845	1640.2	0
21	67845	1640.3	0
21	67845	1640.4	0
21	67845	1640.5	0
21	67845	1640.6	0
21	67845	1640.7	0
21	67845	1640.8	0
21	67845	1640.9	0
21	67845	1641	0
21	67845	1641.1	0
21	67845	1641.2	0
21	67845	1641.3	0
21	67845	1641.4	0
21	67845	1641.5	0
21	67845	1641.6	0
21	67845	1641.7	0
21	67845	1641.8	0
21	67845	1641.9	0
21	67845	1642	0
21	67845	1642.1	0
21	67845	1642.2	0
21	67845	1642.3	0
21	67845	1642.4	0
21	67845	1642.5	0
21	67845	1642.6	0
21	67845	1642.7	0
21	67845	1642.8	0
21	67845	1642.9	0
21	67845	1643	0
21	67845	1643.1	0
21	67845	1643.2	0
21	67845	1643.3	0
21	67845	1643.4	0
21	67845	1643.5	0
21	67845	1643.6	0
21	67845	1643.7	0
21	67845	1643.8	0
21	67845	1643.9	0
21	67845	1644	0
21	67845	1644.1	0
21	67845	1644.2	0
21	67845	1644.3	0
21	67845	1644.4	0
21	67845	1644.5	0
21	67845	1644.6	0
21	67845	1644.7	0
21	67845	1644.8	0
21	67845	1644.9	0
21	67845	1645	0
21	67845	1645.1	0
21	67845	1645.2	0
21	67845	1645.3	0
21	67845	1645.4	0
21	67845	1645.5	0
21	67845	1645.6	0
21	67845	1645.7	0
21	67845	1645.8	0
21	67845	1645.9	0
21	67845	1646	0
21	67845	1646.1	0
21	67845	1646.2	0
21	67845	1646.3	0
21	67845	1646.4	0
21	67845	1646.5	0
21	67845	1646.6	0
21	67845	1646.7	0
21	67845	1646.8	0
21	67845	1646.9	0
21	67845	1647	0
21	67845	1647.1	0
21	67845	1647.2	0
21	67845	1647.3	0
21	67845	1647.4	0
21	67845	1647.5	0
21	67845	1647.6	0
21	67845	1647.7	0
21	67845	1647.8	0
21	67845	1647.9	0
21	67845	1648	0
21	67845	1648.1	0
21	67845	1648.2	0
21	67845	1648.3	0
21	67845	1648.4	0
21	67845	1648.5	0
21	67845	1648.6	0
21	67845	1648.7	0
21	67845	1648.8	0
21	67845	1648.9	0
21	67845	1649	0
21	67845	1649.1	0
21	67845	1649.2	0
21	67845	1649.3	0
21	67845	1649.4	0
21	67845	1649.5	0
21	67845	1649.6	0
21	67845	1649.7	0
21	67845	1649.8	0
21	67845	1649.9	0
21	67845	1650	0
21	67845	1650.1	0
21	67845	1650.2	0
21	67845	1650.3	0
21	67845	1650.4	0
21	67845	1650.5	0
21	67845	1650.6	0
21	67845	1650.7	0
21	67845	1650.8	0
21	67845	1650.9	0
21	67845	1651	0
21	67845	1651.1	0
21	67845	1651.2	0
21	67845	1651.3	0
21	67845	1651.4	0
21	67845	1651.5	0
21	67845	1651.6	0
21	67845	1651.7	0
21	67845	1651.8	0
21	67845	1651.9	0
21	67845	1652	0
21	67845	1652.1	0
21	67845	1652.2	0
21	67845	1652.3	0
21	67845	1652.4	0
21	67845	1652.5	0
21	67845	1652.6	0
21	67845	1652.7	0
21	67845	1652.8	0
21	67845	1652.9	0
21	67845	1653	0
21	67845	1653.1	0
21	67845	1653.2	0
21	67845	1653.3	0
21	67845	1653.4	0
21	67845	1653.5	0
21	67845	1653.6	0
21	67845	1653.7	0
21	67845	1653.8	0
21	67845	1653.9	0
21	67845	1654	0
21	67845	1654.1	0
21	67845	1654.2	0
21	67845	1654.3	0
21	67845	1654.4	0
21	67845	1654.5	0
21	67845	1654.6	0
21	67845	1654.7	0
21	67845	1654.8	0
21	67845	1654.9	0
21	67845	1655	0
21	67845	1655.1	0
21	67845	1655.2	0
21	67845	1655.3	0
21	67845	1655.4	0
21	67845	1655.5	0
21	67845	1655.6	0
21	67845	1655.7	0
21	67845	1655.8	0
21	67845	1655.9	0
21	67845	1656	0
21	67845	1656.1	0
21	67845	1656.2	0
21	67845	1656.3	0
21	67845	1656.4	0
21	67845	1656.5	0
21	67845	1656.6	0
21	67845	1656.7	0
21	67845	1656.8	0
21	67845	1656.9	0
21	67845	1657	0
21	67845	1657.1	0
21	67845	1657.2	0
21	67845	1657.3	0
21	67845	1657.4	0
21	67845	1657.5	0
21	67845	1657.6	0
21	67845	1657.7	0
21	67845	1657.8	0
21	67845	1657.9	0
21	67845	1658	0
21	67845	1658.1	0
21	67845	1658.2	0
21	67845	1658.3	0
21	67845	1658.4	0
21	67845	1658.5	0
21	67845	1658.6	0
21	67845	1658.7	0
21	67845	1658.8	0
21	67845	1658.9	0
21	67845	1659	0
21	67845	1659.1	0
21	67845	1659.2	0
21	67845	1659.3	0
21	67845	1659.4	0
21	67845	1659.5	0
21	67845	1659.6	0
21	67845	1659.7	0
21	67845	1659.8	0
21	67845	1659.9	0
21	67845	1660	0
21	67845	1660.1	0
21	67845	1660.2	0
21	67845	1660.3	0
21	67845	1660.4	0
21	67845	1660.5	0
21	67845	1660.6	0
21	67845	1660.7	0
21	67845	1660.8	0
21	67845	1660.9	0
21	67845	1661	0
21	67845	1661.1	0
21	67845	1661.2	0
21	67845	1661.3	0
21	67845	1661.4	0
21	67845	1661.5	0
21	67845	1661.6	0
21	67845	1661.7	0
21	67845	1661.8	0
21	67845	1661.9	0
21	67845	1662	0
21	67845	1662.1	0
21	67845	1662.2	0
21	67845	1662.3	0
21	67845	1662.4	0
21	67845	1662.5	0
21	67845	1662.6	0
21	67845	1662.7	0
21	67845	1662.8	0
21	67845	1662.9	0
21	67845	1663	0
21	67845	1663.1	0
21	67845	1663.2	0
21	67845	1663.3	0
21	67845	1663.4	0
21	67845	1663.5	0
21	67845	1663.6	0
21	67845	1663.7	0
21	67845	1663.8	0
21	67845	1663.9	0
21	67845	1664	0
21	67845	1664.1	0
21	67845	1664.2	0
21	67845	1664.3	0
21	67845	1664.4	0
21	67845	1664.5	0
21	67845	1664.6	0
21	67845	1664.7	0
21	67845	1664.8	0
21	67845	1664.9	0
21	67845	1665	0
21	67845	1665.1	0
21	67845	1665.2	0
21	67845	1665.3	0
21	67845	1665.4	0
21	67845	1665.5	0
21	67845	1665.6	0
21	67845	1665.7	0
21	67845	1665.8	0
21	67845	1665.9	0
21	67845	1666	0
21	67845	1666.1	0
21	67845	1666.2	0
21	67845	1666.3	0
21	67845	1666.4	0
21	67845	1666.5	0
21	67845	1666.6	0
21	67845	1666.7	0
21	67845	1666.8	0
21	67845	1666.9	0
21	67845	1667	0
21	67845	1667.1	0
21	67845	1667.2	0
21	67845	1667.3	0
21	67845	1667.4	0
21	67845	1667.5	0
21	67845	1667.6	0
21	67845	1667.7	0
21	67845	1667.8	0
21	67845	1667.9	0
21	67845	1668	0
21	67845	1668.1	0
21	67845	1668.2	0
21	67845	1668.3	0
21	67845	1668.4	0
21	67845	1668.5	0
21	67845	1668.6	0
21	67845	1668.7	0
21	67845	1668.8	0
21	67845	1668.9	0
21	67845	1669	0
21	67845	1669.1	0
21	67845	1669.2	0
21	67845	1669.3	0
21	67845	1669.4	0
21	67845	1669.5	0
21	67845	1669.6	0
21	67845	1669.7	0
21	67845	1669.8	0
21	67845	1669.9	0
21	67845	1670	0
21	67845	1670.1	0
21	67845	1670.2	0
21	67845	1670.3	0
21	67845	1670.4	0
21	67845	1670.5	0
21	67845	1670.6	0
21	67845	1670.7	0
21	67845	1670.8	0
21	67845	1670.9	0
21	67845	1671	0
21	67845	1671.1	0
21	67845	1671.2	0
21	67845	1671.3	0
21	67845	1671.4	0
21	67845	1671.5	0
21	67845	1671.6	0
21	67845	1671.7	0
21	67845	1671.8	0
21	67845	1671.9	0
21	67845	1672	0
21	67845	1672.1	0
21	67845	1672.2	0
21	67845	1672.3	0
21	67845	1672.4	0
21	67845	1672.5	0
21	67845	1672.6	0
21	67845	1672.7	0
21	67845	1672.8	0
21	67845	1672.9	0
21	67845	1673	0
21	67845	1673.1	0
21	67845	1673.2	0
21	67845	1673.3	0
21	67845	1673.4	0
21	67845	1673.5	0
21	67845	1673.6	0
21	67845	1673.7	0
21	67845	1673.8	0
21	67845	1673.9	0
21	67845	1674	0
21	67845	1674.1	0
21	67845	1674.2	0
21	67845	1674.3	0
21	67845	1674.4	0
21	67845	1674.5	0
21	67845	1674.6	0
21	67845	1674.7	0
21	67845	1674.8	0
21	67845	1674.9	0
21	67845	1675	0
21	67845	1675.1	0
21	67845	1675.2	0
21	67845	1675.3	0
21	67845	1675.4	0
21	67845	1675.5	0
21	67845	1675.6	0
21	67845	1675.7	0
21	67845	1675.8	0
21	67845	1675.9	0
21	67845	1676	0
21	67845	1676.1	0
21	67845	1676.2	0
21	67845	1676.3	0
21	67845	1676.4	0
21	67845	1676.5	0
21	67845	1676.6	0
21	67845	1676.7	0
21	67845	1676.8	0
21	67845	1676.9	0
21	67845	1677	0
21	67845	1677.1	0
21	67845	1677.2	0
21	67845	1677.3	0
21	67845	1677.4	0
21	67845	1677.5	0
21	67845	1677.6	0
21	67845	1677.7	0
21	67845	1677.8	0
21	67845	1677.9	0
21	67845	1678	0
21	67845	1678.1	0
21	67845	1678.2	0
21	67845	1678.3	0
21	67845	1678.4	0
21	67845	1678.5	0
21	67845	1678.6	0
21	67845	1678.7	0
21	67845	1678.8	0
21	67845	1678.9	0
21	67845	1679	0
21	67845	1679.1	0
21	67845	1679.2	0
21	67845	1679.3	0
21	67845	1679.4	0
21	67845	1679.5	0
21	67845	1679.6	0
21	67845	1679.7	0
21	67845	1679.8	0
21	67845	1679.9	0
21	67845	1680	0
21	67845	1680.1	0
21	67845	1680.2	0
21	67845	1680.3	0
21	67845	1680.4	0
21	67845	1680.5	0
21	67845	1680.6	0
21	67845	1680.7	0
21	67845	1680.8	0
21	67845	1680.9	0
21	67845	1681	0
21	67845	1681.1	0
21	67845	1681.2	0
21	67845	1681.3	0
21	67845	1681.4	0
21	67845	1681.5	0
21	67845	1681.6	0
21	67845	1681.7	0
21	67845	1681.8	0
21	67845	1681.9	0
21	67845	1682	0
21	67845	1682.1	0
21	67845	1682.2	0
21	67845	1682.3	0
21	67845	1682.4	0
21	67845	1682.5	0
21	67845	1682.6	0
21	67845	1682.7	0
21	67845	1682.8	0
21	67845	1682.9	0
21	67845	1683	0
21	67845	1683.1	0
21	67845	1683.2	0
21	67845	1683.3	0
21	67845	1683.4	0
21	67845	1683.5	0
21	67845	1683.6	0
21	67845	1683.7	0
21	67845	1683.8	0
21	67845	1683.9	0
21	67845	1684	0
21	67845	1684.1	0
21	67845	1684.2	0
21	67845	1684.3	0
21	67845	1684.4	0
21	67845	1684.5	0
21	67845	1684.6	0
21	67845	1684.7	0
21	67845	1684.8	0
21	67845	1684.9	0
21	67845	1685	0
21	67845	1685.1	0
21	67845	1685.2	0
21	67845	1685.3	0
21	67845	1685.4	0
21	67845	1685.5	0
21	67845	1685.6	0
21	67845	1685.7	0
21	67845	1685.8	0
21	67845	1685.9	0
21	67845	1686	0
21	67845	1686.1	0
21	67845	1686.2	0
21	67845	1686.3	0
21	67845	1686.4	0
21	67845	1686.5	0
21	67845	1686.6	0
21	67845	1686.7	0
21	67845	1686.8	0
21	67845	1686.9	0
21	67845	1687	0
21	67845	1687.1	0
21	67845	1687.2	0
21	67845	1687.3	0
21	67845	1687.4	0
21	67845	1687.5	0
21	67845	1687.6	0
21	67845	1687.7	0
21	67845	1687.8	0
21	67845	1687.9	0
21	67845	1688	0
21	67845	1688.1	0
21	67845	1688.2	0
21	67845	1688.3	0
21	67845	1688.4	0
21	67845	1688.5	0
21	67845	1688.6	0
21	67845	1688.7	0
21	67845	1688.8	0
21	67845	1688.9	0
21	67845	1689	0
21	67845	1689.1	0
21	67845	1689.2	0
21	67845	1689.3	0
21	67845	1689.4	0
21	67845	1689.5	0
21	67845	1689.6	0
21	67845	1689.7	0
21	67845	1689.8	0
21	67845	1689.9	0
21	67845	1690	0
21	67845	1690.1	0
21	67845	1690.2	0
21	67845	1690.3	0
21	67845	1690.4	0
21	67845	1690.5	0
21	67845	1690.6	0
21	67845	1690.7	0
21	67845	1690.8	0
21	67845	1690.9	0
21	67845	1691	0
21	67845	1691.1	0
21	67845	1691.2	0
21	67845	1691.3	0
21	67845	1691.4	0
21	67845	1691.5	0
21	67845	1691.6	0
21	67845	1691.7	0
21	67845	1691.8	0
21	67845	1691.9	0
21	67845	1692	0
21	67845	1692.1	0
21	67845	1692.2	0
21	67845	1692.3	0
21	67845	1692.4	0
21	67845	1692.5	0
21	67845	1692.6	0
21	67845	1692.7	0
21	67845	1692.8	0
21	67845	1692.9	0
21	67845	1693	0
21	67845	1693.1	0
21	67845	1693.2	0
21	67845	1693.3	0
21	67845	1693.4	0
21	67845	1693.5	0
21	67845	1693.6	0
21	67845	1693.7	0
21	67845	1693.8	0
21	67845	1693.9	0
21	67845	1694	0
21	67845	1694.1	0
21	67845	1694.2	0
21	67845	1694.3	0
21	67845	1694.4	0
21	67845	1694.5	0
21	67845	1694.6	0
21	67845	1694.7	0
21	67845	1694.8	0
21	67845	1694.9	0
21	67845	1695	0
21	67845	1695.1	0
21	67845	1695.2	0
21	67845	1695.3	0
21	67845	1695.4	0
21	67845	1695.5	0
21	67845	1695.6	0
21	67845	1695.7	0
21	67845	1695.8	0
21	67845	1695.9	0
21	67845	1696	0
21	67845	1696.1	0
21	67845	1696.2	0
21	67845	1696.3	0
21	67845	1696.4	0
21	67845	1696.5	0
21	67845	1696.531880213768	0

