version 2
run Sim2drone-0-20210712-21:04:28-20220
attr configname Sim2drone
attr datetime 20210712-21:04:28
attr experiment Sim2drone
attr inifile mobilityDrones-omnetpp.ini
attr iterationvars ""
attr iterationvarsf ""
attr measurement ""
attr network mobilityDrones
attr processid 20220
attr repetition 0
attr replication #0
attr resultdir results
attr runnumber 0
attr seedset 0
param *.numUAVs 2
param *.drones[0].app[0].destAddresses "\"drones[1]\""
param *.drones[1].app[0].destAddresses "\"drones[0]\""
param *.drones[*].mobility.waypointFile "\"paths/mission.txt\""
param *.drones[*].app[*].timeoutDuration 5s
param *.drones[0].mobility.startTime 0s
param *.drones[1].mobility.startTime 40s
param *.drones[0].app[*].startTime "normal(0s, 1s)"
param *.drones[1].app[*].startTime "normal(40s, 1s)"
param *.visualizer.osgVisualizer.typename "\"IntegratedOsgVisualizer\""
param *.visualizer.osgVisualizer.sceneVisualizer.typename "\"SceneOsgEarthVisualizer\""
param *.visualizer.osgVisualizer.sceneVisualizer.mapFile "\"map.earth\""
param *.visualizer.osgVisualizer.sceneVisualizer.sceneImageSize 10000m
param *.visualizer.osgVisualizer.sceneVisualizer.axisLength 500m
param *.visualizer.osgVisualizer.sceneVisualizer.sceneMinX -200m
param *.visualizer.osgVisualizer.sceneVisualizer.sceneMinY -200m
param *.visualizer.osgVisualizer.sceneVisualizer.sceneMinZ 0m
param *.visualizer.osgVisualizer.sceneVisualizer.sceneMaxX 5000m
param *.visualizer.osgVisualizer.sceneVisualizer.sceneMaxY 5000m
param *.visualizer.osgVisualizer.sceneVisualizer.sceneMaxZ 5000m
param *.visualizer.osgVisualizer.networkNodeVisualizer.displayModuleName true
param *.visualizer.*.mobilityVisualizer.displayMobility true
param *.visualizer.*.mobilityVisualizer.displayPositions true
param *.visualizer.*.mobilityVisualizer.displayOrientations true
param *.visualizer.*.mobilityVisualizer.displayVelocities true
param *.visualizer.*.mobilityVisualizer.displayMovementTrails true
param *.visualizer.*.mobilityVisualizer.animationSpeed 10
param *.visualizer.mediumVisualizer.displaySignals true
param **.constraintAreaMinX -5000m
param **.constraintAreaMinY -5000m
param **.constraintAreaMinZ -100m
param **.constraintAreaMaxX 5000m
param **.constraintAreaMaxY 5000m
param **.constraintAreaMaxZ 5000m
param *.drones*.wlan[0].radio.displayCommunicationRange true
param *.coordinateSystem.sceneLongitude -47.926634deg
param *.coordinateSystem.sceneLatitude -15.840075deg
param *.coordinateSystem.sceneHeading 90deg
param *.environment.ground.typename "\"FlatGround\""
param *.drones[*].osgModel "\"3d/drone.ive.80.scale.0,0,90.rot\""
param *.drones[*].mobility.coordinateSystemModule "\"coordinateSystem\""
param *.drones[*].mobility.waypointFile "\"paths/gradys-vai-e-volta-descendo-5s-v1.txt\""
param *.drones[*].mobility.waypointProximity 1m
param **.mobility.initFromDisplayString false
param *.drones[*].mobility.speed 10mps
param *.drones[*].numApps 1
param *.drones[*].app[0].typename "\"UdpMobileNodeCommunicationApp\""
param *.drones[*].app[0].localPort 1000
param *.drones[*].app[0].destPort 1000
param *.drones[*].app[0].sendInterval 1s
param *.drones[*].app[0].startTime 1s
param *.drones[*].app[0].stopTime -1s
param *.drones[*].app[0].messageLength 1454Byte
param *.drones[*].app[0].packetName "\"UAV-DEFAULT-PAYLOAD\""
param *.drones[*].mobility.typename "\"DroneMobility\""
param *.sensor.mobility.typename "\"StationaryMobility\""
param *.sensor*.mobility.coordinateSystemModule "\"\""

vector 0 mobilityDrones.drones[0].wlan[0].radio radioMode:vector ETV
attr interpolationmode sample-hold
attr source radioModeChanged
attr title "Radio mode, vector"
vector 1 mobilityDrones.drones[0].wlan[0].radio radioChannel:vector ETV
attr interpolationmode sample-hold
attr source radioChannelChanged
attr title "Radio channel, vector"
vector 2 mobilityDrones.drones[1].wlan[0].radio radioMode:vector ETV
attr interpolationmode sample-hold
attr source radioModeChanged
attr title "Radio mode, vector"
vector 3 mobilityDrones.drones[1].wlan[0].radio radioChannel:vector ETV
attr interpolationmode sample-hold
attr source radioChannelChanged
attr title "Radio channel, vector"
vector 4 mobilityDrones.drones[0].wlan[0].radio receptionState:vector ETV
attr interpolationmode sample-hold
attr source receptionStateChanged
attr title "Radio reception state, vector"
vector 5 mobilityDrones.drones[1].wlan[0].radio receptionState:vector ETV
attr interpolationmode sample-hold
attr source receptionStateChanged
attr title "Radio reception state, vector"
vector 6 mobilityDrones.drones[0].wlan[0].mac.dcf.recoveryProcedure contentionWindowChanged:vector ETV
attr interpolationmode sample-hold
attr title "contention window, vector"
vector 7 mobilityDrones.drones[1].wlan[0].mac.dcf.recoveryProcedure contentionWindowChanged:vector ETV
attr interpolationmode sample-hold
attr title "contention window, vector"
vector 8 mobilityDrones.drones[0].app[0] packetSent:vector(packetBytes) ETV
attr interpolationmode none
attr source packetSent
attr title "packets sent, vector(packetBytes)"
vector 9 mobilityDrones.drones[0].udp packetSent:vector(packetBytes) ETV
attr interpolationmode none
attr source packetSent
attr title "packets sent, vector(packetBytes)"
vector 10 mobilityDrones.drones[0].ipv4.arp arpRequestSent:vector(packetBytes) ETV
attr source arpRequestSent
attr title "ARP request sent, vector(packetBytes)"
vector 11 mobilityDrones.drones[0].wlan[0].mac packetReceivedFromUpper:vector(packetBytes) ETV
attr interpolationmode none
attr title "packets received from upper layer, vector(packetBytes)"
vector 12 mobilityDrones.drones[0].wlan[0].mac.dcf.channelAccess.pendingQueue packetPushed:vector(packetBytes) ETV
attr interpolationmode none
attr title "packet pushed, vector(packetBytes)"
vector 13 mobilityDrones.drones[0].wlan[0].mac.dcf.channelAccess.pendingQueue queueLength:vector ETV
attr interpolationmode sample-hold
attr source "count(packetPushed) - count(packetPopped) - count(packetRemoved) - count(packetDropped)"
attr title "queue length, vector"
vector 14 mobilityDrones.drones[0].wlan[0].mac.dcf.channelAccess.contention backoffPeriodGenerated:vector ETV
attr interpolationmode none
attr title "backoff periods, vector"
vector 15 mobilityDrones.drones[0].wlan[0].mac.dcf.channelAccess.contention backoffActive:vector ETV
attr interpolationmode sample-hold
attr source count(backoffStarted)-count(backoffStopped)
attr title "backoff active, vector"
vector 16 mobilityDrones.drones[0].wlan[0].mac.dcf.channelAccess.pendingQueue packetPopped:vector(packetBytes) ETV
attr interpolationmode none
attr title "packet popped, vector(packetBytes)"
vector 17 mobilityDrones.drones[0].wlan[0].mac.dcf.channelAccess.pendingQueue queueingTime:vector ETV
attr interpolationmode none
attr source queueingTime(packetPopped)
attr title "queueing times, vector"
attr unit s
vector 18 mobilityDrones.drones[0].wlan[0].mac.dcf.channelAccess.inProgressFrames queueLength:vector ETV
attr interpolationmode sample-hold
attr source "count(packetEnqueued) - count(packetDequeued)"
attr title "queue length, vector"
vector 19 mobilityDrones.drones[0].wlan[0].mac.dcf datarateSelected:vector ETV
attr interpolationmode none
attr title "datarates selected, vector"
vector 20 mobilityDrones.drones[0].wlan[0].mac packetSentToLower:vector(packetBytes) ETV
attr interpolationmode none
attr title "packets sent to lower layer, vector(packetBytes)"
vector 21 mobilityDrones.drones[0].wlan[0].mac.dcf frameSequenceActive:vector ETV
attr interpolationmode sample-hold
attr source count(frameSequenceStarted)-count(frameSequenceFinished)
attr title "frame sequence active, vector"
vector 22 mobilityDrones.drones[0].wlan[0].radio transmissionState:vector ETV
attr interpolationmode sample-hold
attr source transmissionStateChanged
attr title "Radio transmission state, vector"
vector 23 mobilityDrones.drones[0].wlan[0].mac.dcf packetSentToPeer:vector(packetBytes) ETV
attr interpolationmode none
attr title "packets sent, vector(packetBytes)"
vector 24 mobilityDrones.drones[0].wlan[0].mac.dcf packetSentToPeerMulticast:vector(packetBytes) ETV
attr interpolationmode none
attr source ieee80211Multicast(packetSentToPeer)
attr title "packets sent: multicast, vector(packetBytes)"
vector 25 mobilityDrones.drones[0].wlan[0].mac.dcf packetSentToPeerBroadcast:vector(packetBytes) ETV
attr interpolationmode none
attr source ieee80211Broadcast(packetSentToPeer)
attr title "packets sent: broadcast , vector(packetBytes)"
vector 26 mobilityDrones.drones[0].wlan[0].mac.dcf packetSentToPeerWithoutRetry:vector(packetBytes) ETV
attr interpolationmode none
attr source ieee80211NotRetry(packetSentToPeer)
attr title "packets sent: without retry, vector(packetBytes)"
vector 27 mobilityDrones.drones[0].wlan[0].mac.dcf.channelAccess.inProgressFrames queueingTime:vector ETV
attr interpolationmode none
attr source queueingTime(packetDequeued)
attr title "queueing times, vector"
vector 28 mobilityDrones.drones[1].wlan[0].mac packetReceivedFromLower:vector(packetBytes) ETV
attr interpolationmode none
attr title "packets received from lower layer, vector(packetBytes)"
vector 29 mobilityDrones.drones[1].wlan[0].mac.dcf packetReceivedFromPeer:vector(packetBytes) ETV
attr interpolationmode none
attr title "packets received, vector(packetBytes)"
vector 30 mobilityDrones.drones[1].wlan[0].mac.dcf packetReceivedFromPeerMulticast:vector(packetBytes) ETV
attr interpolationmode none
attr source ieee80211Multicast(packetReceivedFromPeer)
attr title "packets received: multicast, vector(packetBytes)"
vector 31 mobilityDrones.drones[1].wlan[0].mac.dcf packetReceivedFromPeerBroadcast:vector(packetBytes) ETV
attr interpolationmode none
attr source ieee80211Broadcast(packetReceivedFromPeer)
attr title "packets received: broadcast, vector(packetBytes)"
vector 32 mobilityDrones.drones[1].wlan[0].mac.dcf packetReceivedFromPeerWithoutRetry:vector(packetBytes) ETV
attr interpolationmode none
attr source ieee80211NotRetry(packetReceivedFromPeer)
attr title "packets received: without retry, vector(packetBytes)"
vector 33 mobilityDrones.drones[1].wlan[0].mac packetSentToUpper:vector(packetBytes) ETV
attr interpolationmode none
attr title "packets sent to upper layer, vector(packetBytes)"
vector 34 mobilityDrones.drones[1].ipv4.arp arpReplySent:vector(packetBytes) ETV
attr source arpReplySent
attr title "ARP replies sent, vector(packetBytes)"
vector 35 mobilityDrones.drones[1].wlan[0].mac packetReceivedFromUpper:vector(packetBytes) ETV
attr interpolationmode none
attr title "packets received from upper layer, vector(packetBytes)"
vector 36 mobilityDrones.drones[1].wlan[0].mac.dcf.channelAccess.pendingQueue packetPushed:vector(packetBytes) ETV
attr interpolationmode none
attr title "packet pushed, vector(packetBytes)"
vector 37 mobilityDrones.drones[1].wlan[0].mac.dcf.channelAccess.pendingQueue queueLength:vector ETV
attr interpolationmode sample-hold
attr source "count(packetPushed) - count(packetPopped) - count(packetRemoved) - count(packetDropped)"
attr title "queue length, vector"
vector 38 mobilityDrones.drones[1].wlan[0].mac.dcf.channelAccess.contention backoffPeriodGenerated:vector ETV
attr interpolationmode none
attr title "backoff periods, vector"
vector 39 mobilityDrones.drones[1].wlan[0].mac.dcf.channelAccess.contention backoffActive:vector ETV
attr interpolationmode sample-hold
attr source count(backoffStarted)-count(backoffStopped)
attr title "backoff active, vector"
vector 40 mobilityDrones.drones[1].wlan[0].mac.dcf.channelAccess.pendingQueue packetPopped:vector(packetBytes) ETV
attr interpolationmode none
attr title "packet popped, vector(packetBytes)"
vector 41 mobilityDrones.drones[1].wlan[0].mac.dcf.channelAccess.pendingQueue queueingTime:vector ETV
attr interpolationmode none
attr source queueingTime(packetPopped)
attr title "queueing times, vector"
attr unit s
vector 42 mobilityDrones.drones[1].wlan[0].mac.dcf.channelAccess.inProgressFrames queueLength:vector ETV
attr interpolationmode sample-hold
attr source "count(packetEnqueued) - count(packetDequeued)"
attr title "queue length, vector"
vector 43 mobilityDrones.drones[1].wlan[0].mac.dcf datarateSelected:vector ETV
attr interpolationmode none
attr title "datarates selected, vector"
vector 44 mobilityDrones.drones[1].wlan[0].mac packetSentToLower:vector(packetBytes) ETV
attr interpolationmode none
attr title "packets sent to lower layer, vector(packetBytes)"
vector 45 mobilityDrones.drones[1].wlan[0].mac.dcf frameSequenceActive:vector ETV
attr interpolationmode sample-hold
attr source count(frameSequenceStarted)-count(frameSequenceFinished)
attr title "frame sequence active, vector"
vector 46 mobilityDrones.drones[1].wlan[0].radio transmissionState:vector ETV
attr interpolationmode sample-hold
attr source transmissionStateChanged
attr title "Radio transmission state, vector"
vector 47 mobilityDrones.drones[1].wlan[0].mac.dcf packetSentToPeer:vector(packetBytes) ETV
attr interpolationmode none
attr title "packets sent, vector(packetBytes)"
vector 48 mobilityDrones.drones[1].wlan[0].mac.dcf packetSentToPeerUnicast:vector(packetBytes) ETV
attr interpolationmode none
attr source ieee80211Unicast(packetSentToPeer)
attr title "packets sent: unicast, vector(packetBytes)"
vector 49 mobilityDrones.drones[1].wlan[0].mac.dcf packetSentToPeerWithoutRetry:vector(packetBytes) ETV
attr interpolationmode none
attr source ieee80211NotRetry(packetSentToPeer)
attr title "packets sent: without retry, vector(packetBytes)"
vector 50 mobilityDrones.drones[1].wlan[0].mac.rx nav:vector ETV
attr interpolationmode linear
attr source navChanged
attr title "network allocation vector, vector"
vector 51 mobilityDrones.drones[0].wlan[0].mac packetReceivedFromLower:vector(packetBytes) ETV
attr interpolationmode none
attr title "packets received from lower layer, vector(packetBytes)"
vector 52 mobilityDrones.drones[0].wlan[0].mac.dcf packetReceivedFromPeer:vector(packetBytes) ETV
attr interpolationmode none
attr title "packets received, vector(packetBytes)"
vector 53 mobilityDrones.drones[0].wlan[0].mac.dcf packetReceivedFromPeerUnicast:vector(packetBytes) ETV
attr interpolationmode none
attr source ieee80211Unicast(packetReceivedFromPeer)
attr title "packets received: unicast, vector(packetBytes)"
vector 54 mobilityDrones.drones[0].wlan[0].mac.dcf packetReceivedFromPeerWithoutRetry:vector(packetBytes) ETV
attr interpolationmode none
attr source ieee80211NotRetry(packetReceivedFromPeer)
attr title "packets received: without retry, vector(packetBytes)"
vector 55 mobilityDrones.drones[0].wlan[0].mac packetSentToUpper:vector(packetBytes) ETV
attr interpolationmode none
attr title "packets sent to upper layer, vector(packetBytes)"
vector 56 mobilityDrones.drones[0].wlan[0].mac.dcf packetSentToPeerUnicast:vector(packetBytes) ETV
attr interpolationmode none
attr source ieee80211Unicast(packetSentToPeer)
attr title "packets sent: unicast, vector(packetBytes)"
vector 57 mobilityDrones.drones[1].wlan[0].mac.dcf packetReceivedFromPeerUnicast:vector(packetBytes) ETV
attr interpolationmode none
attr source ieee80211Unicast(packetReceivedFromPeer)
attr title "packets received: unicast, vector(packetBytes)"
vector 58 mobilityDrones.drones[1].wlan[0].mac.dcf.channelAccess.inProgressFrames queueingTime:vector ETV
attr interpolationmode none
attr source queueingTime(packetDequeued)
attr title "queueing times, vector"
vector 59 mobilityDrones.drones[0].wlan[0].mac.rx nav:vector ETV
attr interpolationmode linear
attr source navChanged
attr title "network allocation vector, vector"
vector 60 mobilityDrones.drones[1].udp packetReceived:vector(packetBytes) ETV
attr interpolationmode none
attr source packetReceived
attr title "packets received, vector(packetBytes)"
vector 61 mobilityDrones.drones[1].udp droppedPkWrongPort:vector(count) ETV
attr interpolationmode none
attr source packetDropReasonIsNoPortFound(packetDropped)
attr title "packets dropped (wrong port), vector(count)"
vector 62 mobilityDrones.drones[0].wlan[0].mac.dcf packetSentToPeerWithRetry:vector(packetBytes) ETV
attr interpolationmode none
attr source ieee80211Retry(packetSentToPeer)
attr title "packets sent: with retry, vector(packetBytes)"
vector 63 mobilityDrones.drones[0].wlan[0].mac.dcf packetDrop:vector(packetBytes) ETV
attr interpolationmode none
attr source packetDropped
attr title "packet drops, vector(packetBytes)"
vector 64 mobilityDrones.drones[0].wlan[0].mac.dcf packetDropRetryLimitReached:vector(packetBytes) ETV
attr interpolationmode none
attr source packetDropReasonIsRetryLimitReached(packetDropped)
attr title "packet drops: retry limit reached, vector(packetBytes)"
vector 65 mobilityDrones.drones[0].wlan[0].mac packetDrop:vector(packetBytes) ETV
attr interpolationmode none
attr source packetDropped
attr title "packet drops, vector(packetBytes)"
vector 66 mobilityDrones.drones[0].wlan[0].mac packetDropRetryLimitReached:vector(packetBytes) ETV
attr interpolationmode none
attr source packetDropReasonIsRetryLimitReached(packetDropped)
attr title "packet drops: retry limit reached, vector(packetBytes)"
vector 67 mobilityDrones.drones[1].app[0] packetSent:vector(packetBytes) ETV
attr interpolationmode none
attr source packetSent
attr title "packets sent, vector(packetBytes)"
vector 68 mobilityDrones.drones[1].udp packetSent:vector(packetBytes) ETV
attr interpolationmode none
attr source packetSent
attr title "packets sent, vector(packetBytes)"
vector 69 mobilityDrones.drones[1].wlan[0].mac.dcf packetSentToPeerWithRetry:vector(packetBytes) ETV
attr interpolationmode none
attr source ieee80211Retry(packetSentToPeer)
attr title "packets sent: with retry, vector(packetBytes)"
vector 70 mobilityDrones.drones[1].wlan[0].mac.dcf packetDrop:vector(packetBytes) ETV
attr interpolationmode none
attr source packetDropped
attr title "packet drops, vector(packetBytes)"
vector 71 mobilityDrones.drones[1].wlan[0].mac.dcf packetDropRetryLimitReached:vector(packetBytes) ETV
attr interpolationmode none
attr source packetDropReasonIsRetryLimitReached(packetDropped)
attr title "packet drops: retry limit reached, vector(packetBytes)"
vector 72 mobilityDrones.drones[1].wlan[0].mac packetDrop:vector(packetBytes) ETV
attr interpolationmode none
attr source packetDropped
attr title "packet drops, vector(packetBytes)"
vector 73 mobilityDrones.drones[1].wlan[0].mac packetDropRetryLimitReached:vector(packetBytes) ETV
attr interpolationmode none
attr source packetDropReasonIsRetryLimitReached(packetDropped)
attr title "packet drops: retry limit reached, vector(packetBytes)"
vector 74 mobilityDrones.drones[1].ipv4.arp arpRequestSent:vector(packetBytes) ETV
attr source arpRequestSent
attr title "ARP request sent, vector(packetBytes)"
vector 75 mobilityDrones.drones[1].wlan[0].mac.dcf packetSentToPeerMulticast:vector(packetBytes) ETV
attr interpolationmode none
attr source ieee80211Multicast(packetSentToPeer)
attr title "packets sent: multicast, vector(packetBytes)"
vector 76 mobilityDrones.drones[1].wlan[0].mac.dcf packetSentToPeerBroadcast:vector(packetBytes) ETV
attr interpolationmode none
attr source ieee80211Broadcast(packetSentToPeer)
attr title "packets sent: broadcast , vector(packetBytes)"
vector 77 mobilityDrones.drones[1].ipv4.ip packetDropAddressResolutionFailed:vector(packetBytes) ETV
attr interpolationmode none
attr source packetDropReasonIsAddressResolutionFailed(packetDropped)
attr title "packet drop: address resolution failed, vector(packetBytes)"
vector 78 mobilityDrones.drones[0].ipv4.ip packetDropAddressResolutionFailed:vector(packetBytes) ETV
attr interpolationmode none
attr source packetDropReasonIsAddressResolutionFailed(packetDropped)
attr title "packet drop: address resolution failed, vector(packetBytes)"
vector 79 mobilityDrones.drones[0].wlan[0].mac.dcf packetReceivedFromPeerMulticast:vector(packetBytes) ETV
attr interpolationmode none
attr source ieee80211Multicast(packetReceivedFromPeer)
attr title "packets received: multicast, vector(packetBytes)"
vector 80 mobilityDrones.drones[0].wlan[0].mac.dcf packetReceivedFromPeerBroadcast:vector(packetBytes) ETV
attr interpolationmode none
attr source ieee80211Broadcast(packetReceivedFromPeer)
attr title "packets received: broadcast, vector(packetBytes)"
vector 81 mobilityDrones.drones[0].ipv4.arp arpReplySent:vector(packetBytes) ETV
attr source arpReplySent
attr title "ARP replies sent, vector(packetBytes)"
vector 82 mobilityDrones.drones[1].wlan[0].mac packetDropIncorrectlyReceived:vector(packetBytes) ETV
attr interpolationmode none
attr source packetDropReasonIsIncorrectlyReceived(packetDropped)
attr title "packet drops: incorrectly received, vector(packetBytes)"
vector 83 mobilityDrones.drones[1].wlan[0].mac.dcf packetReceivedFromPeerWithRetry:vector(packetBytes) ETV
attr interpolationmode none
attr source ieee80211Retry(packetReceivedFromPeer)
attr title "packets received: with retry, vector(packetBytes)"
vector 84 mobilityDrones.drones[1].udp passedUpPk:vector(count) ETV
attr interpolationmode none
attr source packetSentToUpper
attr title "packets passed up, vector(count)"
vector 85 mobilityDrones.drones[1].app[0] packetReceived:vector(packetBytes) ETV
attr interpolationmode none
attr source packetReceived
attr title "packets received, vector(packetBytes)"
vector 86 mobilityDrones.drones[1].app[0] throughput:vector ETV
attr source throughput(packetReceived)
attr title "throughput, vector"
attr unit bps
vector 87 mobilityDrones.drones[1].app[0] rcvdPkLifetime:vector ETV
attr interpolationmode none
attr source dataAge(packetReceived)
attr title "received packet lifetime, vector"
attr unit s
vector 88 mobilityDrones.drones[0].wlan[0].mac packetDropIncorrectlyReceived:vector(packetBytes) ETV
attr interpolationmode none
attr source packetDropReasonIsIncorrectlyReceived(packetDropped)
attr title "packet drops: incorrectly received, vector(packetBytes)"
vector 89 mobilityDrones.drones[0].udp packetReceived:vector(packetBytes) ETV
attr interpolationmode none
attr source packetReceived
attr title "packets received, vector(packetBytes)"
vector 90 mobilityDrones.drones[0].udp passedUpPk:vector(count) ETV
attr interpolationmode none
attr source packetSentToUpper
attr title "packets passed up, vector(count)"
vector 91 mobilityDrones.drones[0].app[0] packetReceived:vector(packetBytes) ETV
attr interpolationmode none
attr source packetReceived
attr title "packets received, vector(packetBytes)"
vector 92 mobilityDrones.drones[0].app[0] throughput:vector ETV
attr source throughput(packetReceived)
attr title "throughput, vector"
attr unit bps
vector 93 mobilityDrones.drones[0].app[0] rcvdPkLifetime:vector ETV
attr interpolationmode none
attr source dataAge(packetReceived)
attr title "received packet lifetime, vector"
attr unit s
vector 94 mobilityDrones.drones[0].wlan[0].mac.dcf packetReceivedFromPeerWithRetry:vector(packetBytes) ETV
attr interpolationmode none
attr source ieee80211Retry(packetReceivedFromPeer)
attr title "packets received: with retry, vector(packetBytes)"
vector 95 mobilityDrones.drones[0].wlan[0].mac.dcf.recipientMacDataService packetDropDuplicateDetected:vector(packetBytes) ETV
attr interpolationmode none
attr source packetDropReasonIsDuplicateDetected(packetDropped)
attr title "packet drops: duplicate detected, vector(packetBytes)"
vector 96 mobilityDrones.drones[0].wlan[0].mac packetDropDuplicateDetected:vector(packetBytes) ETV
attr interpolationmode none
attr source packetDropReasonIsDuplicateDetected(packetDropped)
attr title "packet drops: duplicate detected, vector(packetBytes)"
0	0	0	0
0	0	0	0
0	0	0	2
0	35	0.00041	3
0	40	0.00046	2
0	61	0.000650000004	3
0	66	0.000684000004	2
0	71	0.001194000004	3
0	75	0.001248000004	2
0	108	0.001530000061	3
0	113	0.001564000061	2
0	141	1	3
0	145	1.000054	2
0	178	1.000456066695	3
0	183	1.000490066695	2
0	207	2	3
0	211	2.000054	2
0	244	2.000336133403	3
0	249	2.000370133403	2
0	273	3	3
0	277	3.000054	2
0	310	3.000496200122	3
0	315	3.000530200122	2
0	339	4	3
0	343	4.000054	2
0	376	4.000316266829	3
0	381	4.000350266829	2
0	406	5	3
0	410	5.000054	2
0	444	5.000376333542	3
0	449	5.000410333542	2
0	473	6	3
0	477	6.000054	2
0	510	6.000596338851	3
0	515	6.000630338851	2
0	539	7	3
0	543	7.000054	2
0	576	7.000316356159	3
0	581	7.000350356159	2
0	605	8	3
0	609	8.000054	2
0	642	8.000516384423	3
0	647	8.000550384423	2
0	671	9	3
0	675	9.000054	2
0	708	9.000276421436	3
0	713	9.000310421436	2
0	737	10	3
0	741	10.000054	2
0	774	10.000596465132	3
0	779	10.000630465132	2
0	803	11	3
0	807	11.000054	2
0	840	11.000596513792	3
0	845	11.000630513792	2
0	869	12	3
0	873	12.000054	2
0	906	12.000236566133	3
0	911	12.000270566133	2
0	935	13	3
0	939	13.000054	2
0	972	13.000616621253	3
0	977	13.000650621253	2
0	1001	14	3
0	1005	14.000054	2
0	1038	14.000776678454	3
0	1043	14.000810678454	2
0	1067	15	3
0	1071	15.000054	2
0	1104	15.000336737238	3
0	1109	15.000370737238	2
0	1133	16	3
0	1137	16.000054	2
0	1170	16.000416797286	3
0	1175	16.000450797286	2
0	1199	17	3
0	1203	17.000054	2
0	1209	17.000928	3
0	1213	17.000982	2
0	1219	17.001896	3
0	1223	17.00195	2
0	1229	17.003184	3
0	1233	17.003238	2
0	1239	17.009152	3
0	1243	17.009206	2
0	1254	17.0267	3
0	1258	17.026754	2
0	1264	17.029228	3
0	1268	17.029282	2
0	1291	18	3
0	1295	18.000054	2
0	1301	18.000508	3
0	1305	18.000562	2
0	1311	18.002476	3
0	1315	18.00253	2
0	1321	18.005184	3
0	1325	18.005238	2
0	1334	18.013292	3
0	1338	18.013346	2
0	1346	18.02566	3
0	1350	18.025714	2
0	1357	18.037108	3
0	1361	18.037162	2
0	1383	19	3
0	1387	19.000054	2
0	1394	19.018908	3
0	1398	19.018962	2
0	1404	19.020736	3
0	1408	19.02079	2
0	1414	19.024944	3
0	1418	19.024998	2
0	1426	19.031572	3
0	1430	19.031626	2
0	1438	19.0472	3
0	1442	19.047254	2
0	1449	19.066628	3
0	1453	19.066682	2
0	1475	20	3
0	1479	20.000054	2
0	1486	20.020388	3
0	1490	20.020442	2
0	1496	20.023156	3
0	1500	20.02321	2
0	1508	20.042744	3
0	1512	20.042798	2
0	1519	20.060252	3
0	1523	20.060306	2
0	1529	20.064	3
0	1533	20.064054	2
0	1541	20.084148	3
0	1545	20.084202	2
0	1567	21	3
0	1571	21.000054	2
0	1578	21.013348	3
0	1582	21.013402	2
0	1588	21.018036	3
0	1592	21.01809	2
0	1600	21.037264	3
0	1604	21.037318	2
0	1611	21.053232	3
0	1615	21.053286	2
0	1622	21.06776	3
0	1626	21.067814	2
0	1633	21.086088	3
0	1637	21.086142	2
0	1659	22	3
0	1663	22.000054	2
0	1670	22.011348	3
0	1674	22.011402	2
0	1680	22.017596	3
0	1684	22.01765	2
0	1692	22.029364	3
0	1696	22.029418	2
0	1702	22.032892	3
0	1706	22.032946	2
0	1714	22.04654	3
0	1718	22.046594	2
0	1724	22.055648	3
0	1728	22.055702	2
0	1751	23	3
0	1755	23.000054	2
0	1762	23.012268	3
0	1766	23.012322	2
0	1772	23.017536	3
0	1776	23.01759	2
0	1784	23.035304	3
0	1788	23.035358	2
0	1795	23.049252	3
0	1799	23.049306	2
0	1805	23.05524	3
0	1809	23.055294	2
0	1817	23.073988	3
0	1821	23.074042	2
0	1843	24	3
0	1847	24.000054	2
0	1853	24.007888	3
0	1857	24.007942	2
0	1865	24.020236	3
0	1869	24.02029	2
0	1876	24.031464	3
0	1880	24.031518	2
0	1887	24.051072	3
0	1891	24.051126	2
0	1897	24.05858	3
0	1901	24.058634	2
0	1909	24.078708	3
0	1913	24.078762	2
0	1935	25	3
0	1939	25.000054	2
0	1945	25.007808	3
0	1949	25.007862	2
0	1957	25.018196	3
0	1961	25.01825	2
0	1968	25.036464	3
0	1972	25.036518	2
0	1978	25.044012	3
0	1982	25.044066	2
0	1990	25.05526	3
0	1994	25.055314	2
0	2001	25.074488	3
0	2005	25.074542	2
0	2027	26	3
0	2031	26.000054	2
0	2038	26.014128	3
0	2042	26.014182	2
0	2048	26.016876	3
0	2052	26.01693	2
0	2059	26.024564	3
0	2063	26.024618	2
0	2069	26.026672	3
0	2073	26.026726	2
0	2082	26.0383	3
0	2086	26.038354	2
0	2093	26.057068	3
0	2097	26.057122	2
0	2119	27	3
0	2123	27.000054	2
0	2130	27.019408	3
0	2134	27.019462	2
0	2141	27.031436	3
0	2145	27.03149	2
0	2152	27.050424	3
0	2156	27.050478	2
0	2163	27.065352	3
0	2167	27.065406	2
0	2173	27.06846	3
0	2177	27.068514	2
0	2183	27.072788	3
0	2187	27.072842	2
0	2212	28	3
0	2216	28.000054	2
0	2223	28.015788	3
0	2227	28.015842	2
0	2233	28.016756	3
0	2237	28.01681	2
0	2243	28.018064	3
0	2247	28.018118	2
0	2256	28.032312	3
0	2260	28.032366	2
0	2266	28.03318	3
0	2270	28.033234	2
0	2278	28.048888	3
0	2282	28.048942	2
0	2304	29	3
0	2308	29.000054	2
0	2315	29.017588	3
0	2319	29.017642	2
0	2325	29.017956	3
0	2329	29.01801	2
0	2337	29.033504	3
0	2341	29.033558	2
0	2347	29.039792	3
0	2351	29.039846	2
0	2357	29.04154	3
0	2361	29.041594	2
0	2367	29.042328	3
0	2371	29.042382	2
0	2396	30	3
0	2400	30.000054	2
0	2407	30.016268	3
0	2411	30.016322	2
0	2417	30.021916	3
0	2421	30.02197	2
0	2427	30.025544	3
0	2431	30.025598	2
0	2440	30.036772	3
0	2444	30.036826	2
0	2450	30.04434	3
0	2454	30.044394	2
0	2461	30.048168	3
0	2465	30.048222	2
0	2488	31	3
0	2492	31.000054	2
0	2499	31.011928	3
0	2503	31.011982	2
0	2509	31.017796	3
0	2513	31.01785	2
0	2520	31.023544	3
0	2524	31.023598	2
0	2532	31.036432	3
0	2536	31.036486	2
0	2543	31.05198	3
0	2547	31.052034	2
0	2554	31.062428	3
0	2558	31.062482	2
0	2580	32	3
0	2584	32.000054	2
0	2591	32.017648	3
0	2595	32.017702	2
0	2601	32.023176	3
0	2605	32.02323	2
0	2613	32.040924	3
0	2617	32.040978	2
0	2623	32.046992	3
0	2627	32.047046	2
0	2634	32.0537	3
0	2638	32.053754	2
0	2644	32.054228	3
0	2648	32.054282	2
0	2672	33	3
0	2676	33.000054	2
0	2682	33.008348	3
0	2686	33.008402	2
0	2693	33.017496	3
0	2697	33.01755	2
0	2704	33.022604	3
0	2708	33.022658	2
0	2714	33.026352	3
0	2718	33.026406	2
0	2726	33.03296	3
0	2730	33.033014	2
0	2738	33.053188	3
0	2742	33.053242	2
0	2764	34	3
0	2768	34.000054	2
0	2775	34.017428	3
0	2779	34.017482	2
0	2785	34.022776	3
0	2789	34.02283	2
0	2797	34.042184	3
0	2801	34.042238	2
0	2808	34.057312	3
0	2812	34.057366	2
0	2818	34.06024	3
0	2822	34.060294	2
0	2830	34.080788	3
0	2834	34.080842	2
0	2856	35	3
0	2860	35.000054	2
0	2867	35.017928	3
0	2871	35.017982	2
0	2878	35.030496	3
0	2882	35.03055	2
0	2889	35.047504	3
0	2893	35.047558	2
0	2900	35.061572	3
0	2904	35.061626	2
0	2911	35.07228	3
0	2915	35.072334	2
0	2921	35.075468	3
0	2925	35.075522	2
0	2948	36	3
0	2952	36.000054	2
0	2958	36.002348	3
0	2962	36.002402	2
0	2968	36.002996	3
0	2972	36.00305	2
0	2980	36.012424	3
0	2984	36.012478	2
0	2992	36.031692	3
0	2996	36.031746	2
0	3003	36.04962	3
0	3007	36.049674	2
0	3014	36.067488	3
0	3018	36.067542	2
0	3040	37	3
0	3044	37.000054	2
0	3051	37.012048	3
0	3055	37.012102	2
0	3062	37.025656	3
0	3066	37.02571	2
0	3073	37.043244	3
0	3077	37.043298	2
0	3084	37.061952	3
0	3088	37.062006	2
0	3094	37.06666	3
0	3098	37.066714	2
0	3106	37.076948	3
0	3110	37.077002	2
0	3132	38	3
0	3136	38.000054	2
0	3142	38.006668	3
0	3146	38.006722	2
0	3153	38.016196	3
0	3157	38.01625	2
0	3164	38.022084	3
0	3168	38.022138	2
0	3176	38.032732	3
0	3180	38.032786	2
0	3187	38.04966	3
0	3191	38.049714	2
0	3198	38.063728	3
0	3202	38.063782	2
0	3224	39	3
0	3228	39.000054	2
0	3234	39.000968	3
0	3238	39.001022	2
0	3244	39.006596	3
0	3248	39.00665	2
0	3257	39.017784	3
0	3261	39.017838	2
0	3267	39.026692	3
0	3271	39.026746	2
0	3278	39.03098	3
0	3282	39.031034	2
0	3290	39.046708	3
0	3294	39.046762	2
0	3399	40	3
0	3404	40.000054	2
0	3410	40.000628	3
0	3414	40.000682	2
0	3420	40.002116	3
0	3424	40.00217	2
0	3433	40.021824	3
0	3437	40.021878	2
0	3444	40.042112	3
0	3448	40.042166	2
0	3455	40.05768	3
0	3459	40.057734	2
0	3465	40.062508	3
0	3469	40.062562	2
0	3574	41	3
0	3578	41.000054	2
0	3584	41.000368	3
0	3588	41.000422	2
0	3596	41.012836	3
0	3600	41.01289	2
0	3606	41.017224	3
0	3610	41.017278	2
0	3616	41.020132	3
0	3620	41.020186	2
0	3629	41.03416	3
0	3633	41.034214	2
0	3640	41.054368	3
0	3644	41.054422	2
0	3748	42	3
0	3752	42.000054	2
0	3759	42.016568	3
0	3763	42.016622	2
0	3769	42.022856	3
0	3773	42.02291	2
0	3779	42.026484	3
0	3783	42.026538	2
0	3790	42.029592	3
0	3794	42.029646	2
0	3803	42.04872	3
0	3807	42.048774	2
0	3814	42.059688	3
0	3818	42.059742	2
0	3923	43	3
0	3927	43.000054	2
0	3934	43.019068	3
0	3938	43.019122	2
0	3945	43.036736	3
0	3949	43.03679	2
0	3956	43.052304	3
0	3960	43.052358	2
0	3967	43.068432	3
0	3971	43.068486	2
0	3978	43.08412	3
0	3982	43.084174	2
0	3988	43.092148	3
0	3992	43.092202	2
0	4097	44	3
0	4101	44.000054	2
0	4107	44.001908	3
0	4111	44.001962	2
0	4117	44.002716	3
0	4121	44.00277	2
0	4130	44.015764	3
0	4134	44.015818	2
0	4140	44.020552	3
0	4144	44.020606	2
0	4152	44.03604	3
0	4156	44.036094	2
0	4162	44.036908	3
0	4166	44.036962	2
0	4271	45	3
0	4276	45.000054	2
0	4283	45.003928	3
0	4287	45.003982	2
0	4293	45.006656	3
0	4297	45.00671	2
0	4304	45.010984	3
0	4308	45.011038	2
0	4316	45.018492	3
0	4320	45.018546	2
0	4327	45.02446	3
0	4331	45.024514	2
0	4338	45.032128	3
0	4342	45.032182	2
0	4447	46	3
0	4451	46.000054	2
0	4457	46.002428	3
0	4461	46.002482	2
0	4469	46.018536	3
0	4473	46.01859	2
0	4479	46.019264	3
0	4483	46.019318	2
0	4491	46.034472	3
0	4495	46.034526	2
0	4501	46.0404	3
0	4505	46.040454	2
0	4511	46.043468	3
0	4515	46.043522	2
0	4621	47	3
0	4625	47.000054	2
0	4632	47.015448	3
0	4636	47.015502	2
0	4642	47.022036	3
0	4646	47.02209	2
0	4654	47.034644	3
0	4658	47.034698	2
0	4664	47.036612	3
0	4668	47.036666	2
0	4674	47.04358	3
0	4678	47.043634	2
0	4686	47.052188	3
0	4690	47.052242	2
0	4795	48	3
0	4799	48.000054	2
0	4805	48.001808	3
0	4809	48.001862	2
0	4816	48.010616	3
0	4820	48.01067	2
0	4828	48.026944	3
0	4832	48.026998	2
0	4838	48.028952	3
0	4842	48.029006	2
0	4848	48.03258	3
0	4852	48.032634	2
0	4860	48.040828	3
0	4864	48.040882	2
0	4969	49	3
0	4973	49.000054	2
0	4980	49.019228	3
0	4984	49.019282	2
0	4991	49.037296	3
0	4995	49.03735	2
0	5002	49.057084	3
0	5006	49.057138	2
0	5013	49.068732	3
0	5017	49.068786	2
0	5023	49.0692	3
0	5027	49.069254	2
0	5033	49.071468	3
0	5037	49.071522	2
0	5143	50	3
0	5147	50.000054	2
0	5153	50.002008	3
0	5157	50.002062	2
0	5165	50.019976	3
0	5169	50.02003	2
0	5176	50.035124	3
0	5180	50.035178	2
0	5186	50.037012	3
0	5190	50.037066	2
0	5196	50.04036	3
0	5200	50.040414	2
0	5206	50.043448	3
0	5210	50.043502	2
0	5317	51	3
0	5321	51.000054	2
0	5328	51.014448	3
0	5332	51.014502	2
0	5339	51.029236	3
0	5343	51.02929	2
0	5350	51.048024	3
0	5354	51.048078	2
0	5360	51.053792	3
0	5364	51.053846	2
0	5372	51.06994	3
0	5376	51.069994	2
0	5382	51.078608	3
0	5386	51.078662	2
0	5491	52	3
0	5495	52.000054	2
0	5502	52.013088	3
0	5506	52.013142	2
0	5513	52.032596	3
0	5517	52.03265	2
0	5524	52.044204	3
0	5528	52.044258	2
0	5535	52.057412	3
0	5539	52.057466	2
0	5546	52.0679	3
0	5550	52.067954	2
0	5556	52.073168	3
0	5560	52.073222	2
0	5665	53	3
0	5669	53.000054	2
0	5676	53.011868	3
0	5680	53.011922	2
0	5687	53.028416	3
0	5691	53.02847	2
0	5698	53.048684	3
0	5702	53.048738	2
0	5708	53.057492	3
0	5712	53.057546	2
0	5719	53.06202	3
0	5723	53.062074	2
0	5731	53.078548	3
0	5735	53.078602	2
0	5839	54	3
0	5843	54.000054	2
0	5850	54.016608	3
0	5854	54.016662	2
0	5861	54.026916	3
0	5865	54.02697	2
0	5872	54.047464	3
0	5876	54.047518	2
0	5883	54.063332	3
0	5887	54.063386	2
0	5894	54.0823	3
0	5898	54.082354	2
0	5905	54.099548	3
0	5909	54.099602	2
0	6013	55	3
0	6017	55.000054	2
0	6023	55.003408	3
0	6027	55.003462	2
0	6035	55.014956	3
0	6039	55.01501	2
0	6046	55.034004	3
0	6050	55.034058	2
0	6056	55.036272	3
0	6060	55.036326	2
0	6066	55.04044	3
0	6070	55.040494	2
0	6078	55.046588	3
0	6082	55.046642	2
0	6187	56	3
0	6191	56.000054	2
0	6198	56.020468	3
0	6202	56.020522	2
0	6209	56.031296	3
0	6213	56.03135	2
0	6220	56.041524	3
0	6224	56.041578	2
0	6231	56.058612	3
0	6235	56.058666	2
0	6242	56.07846	3
0	6246	56.078514	2
0	6253	56.094128	3
0	6257	56.094182	2
0	6361	57	3
0	6365	57.000054	2
0	6372	57.017788	3
0	6376	57.017842	2
0	6383	57.032916	3
0	6387	57.03297	2
0	6394	57.046324	3
0	6398	57.046378	2
0	6404	57.052072	3
0	6408	57.052126	2
0	6414	57.0523	3
0	6418	57.052354	2
0	6427	57.064688	3
0	6431	57.064742	2
0	6535	58	3
0	6539	58.000054	2
0	6545	58.008288	3
0	6549	58.008342	2
0	6556	58.016656	3
0	6560	58.01671	2
0	6566	58.017384	3
0	6570	58.017438	2
0	6579	58.036112	3
0	6583	58.036166	2
0	6589	58.04368	3
0	6593	58.043734	2
0	6601	58.060248	3
0	6605	58.060302	2
0	6709	59	3
0	6713	59.000054	2
0	6720	59.017168	3
0	6724	59.017222	2
0	6730	59.024836	3
0	6734	59.02489	2
0	6742	59.043624	3
0	6746	59.043678	2
0	6753	59.058192	3
0	6757	59.058246	2
0	6763	59.0613	3
0	6767	59.061354	2
0	6775	59.079148	3
0	6779	59.079202	2
0	6883	60	3
0	6887	60.000054	2
0	6894	60.019008	3
0	6898	60.019062	2
0	6905	60.032156	3
0	6909	60.03221	2
0	6915	60.037044	3
0	6919	60.037098	2
0	6926	60.044392	3
0	6930	60.044446	2
0	6938	60.06434	3
0	6942	60.064394	2
0	6949	60.081668	3
0	6953	60.081722	2
0	7057	61	3
0	7061	61.000054	2
0	7067	61.006928	3
0	7071	61.006982	2
0	7079	61.023956	3
0	7083	61.02401	2
0	7089	61.029584	3
0	7093	61.029638	2
0	7100	61.037112	3
0	7104	61.037166	2
0	7112	61.0541	3
0	7116	61.054154	2
0	7122	61.058768	3
0	7126	61.058822	2
0	7231	62	3
0	7235	62.000054	2
0	7241	62.000628	3
0	7245	62.000682	2
0	7253	62.014736	3
0	7257	62.01479	2
0	7263	62.020724	3
0	7267	62.020778	2
0	7274	62.027972	3
0	7278	62.028026	2
0	7286	62.04486	3
0	7290	62.044914	2
0	7296	62.047688	3
0	7300	62.047742	2
0	7405	63	3
0	7409	63.000054	2
0	7415	63.005108	3
0	7419	63.005162	2
0	7426	63.012556	3
0	7430	63.01261	2
0	7438	63.031644	3
0	7442	63.031698	2
0	7448	63.035812	3
0	7452	63.035866	2
0	7459	63.0447	3
0	7463	63.044754	2
0	7470	63.048788	3
0	7474	63.048842	2
0	7579	64	3
0	7583	64.000054	2
0	7589	64.009648	3
0	7593	64.009702	2
0	7601	64.022196	3
0	7605	64.02225	2
0	7611	64.028804	3
0	7615	64.028858	2
0	7621	64.030992	3
0	7625	64.031046	2
0	7634	64.04818	3
0	7638	64.048234	2
0	7644	64.054868	3
0	7648	64.054922	2
0	7753	65	3
0	7757	65.000054	2
0	7763	65.003128	3
0	7767	65.003182	2
0	7775	65.023216	3
0	7779	65.02327	2
0	7785	65.032884	3
0	7789	65.032938	2
0	7796	65.040872	3
0	7800	65.040926	2
0	7808	65.05468	3
0	7812	65.054734	2
0	7819	65.065988	3
0	7823	65.066042	2
0	7927	66	3
0	7931	66.000054	2
0	7937	66.002068	3
0	7941	66.002122	2
0	7949	66.019236	3
0	7953	66.01929	2
0	7959	66.025024	3
0	7963	66.025078	2
0	7971	66.039532	3
0	7975	66.039586	2
0	7981	66.04032	3
0	7985	66.040374	2
0	7991	66.042768	3
0	7995	66.042822	2
0	8102	67	3
0	8106	67.000054	2
0	8112	67.002008	3
0	8116	67.002062	2
0	8122	67.009096	3
0	8126	67.00915	2
0	8134	67.017264	3
0	8138	67.017318	2
0	8145	67.025792	3
0	8149	67.025846	2
0	8157	67.04006	3
0	8161	67.040114	2
0	8167	67.048288	3
0	8171	67.048342	2
0	8276	68	3
0	8281	68.000054	2
0	8287	68.004248	3
0	8291	68.004302	2
0	8298	68.012676	3
0	8302	68.01273	2
0	8309	68.020124	3
0	8313	68.020178	2
0	8321	68.037372	3
0	8325	68.037426	2
0	8332	68.05228	3
0	8336	68.052334	2
0	8342	68.060808	3
0	8346	68.060862	2
0	8451	69	3
0	8455	69.000054	2
0	8461	69.001168	3
0	8465	69.001222	2
0	8473	69.021276	3
0	8477	69.02133	2
0	8484	69.037704	3
0	8488	69.037758	2
0	8495	69.052252	3
0	8499	69.052306	2
0	8506	69.06386	3
0	8510	69.063914	2
0	8516	69.072888	3
0	8520	69.072942	2
0	8625	70	3
0	8629	70.000054	2
0	8636	70.013848	3
0	8640	70.013902	2
0	8646	70.018896	3
0	8650	70.01895	2
0	8657	70.027324	3
0	8661	70.027378	2
0	8669	70.038012	3
0	8673	70.038066	2
0	8679	70.04154	3
0	8683	70.041594	2
0	8689	70.045008	3
0	8693	70.045062	2
0	8799	71	3
0	8803	71.000054	2
0	8809	71.006828	3
0	8813	71.006882	2
0	8821	71.021796	3
0	8825	71.02185	2
0	8831	71.026324	3
0	8835	71.026378	2
0	8841	71.031392	3
0	8845	71.031446	2
0	8852	71.03354	3
0	8856	71.033594	2
0	8864	71.041988	3
0	8868	71.042042	2
0	8973	72	3
0	8977	72.000054	2
0	8984	72.017108	3
0	8988	72.017162	2
0	8994	72.018576	3
0	8998	72.01863	2
0	9005	72.027844	3
0	9009	72.027898	2
0	9017	72.048212	3
0	9021	72.048266	2
0	9027	72.05086	3
0	9031	72.050914	2
0	9037	72.053768	3
0	9041	72.053822	2
0	9147	73	3
0	9151	73.000054	2
0	9158	73.019648	3
0	9162	73.019702	2
0	9168	73.019856	3
0	9172	73.01991	2
0	9180	73.034004	3
0	9184	73.034058	2
0	9190	73.038912	3
0	9194	73.038966	2
0	9202	73.0526	3
0	9206	73.052654	2
0	9212	73.056168	3
0	9216	73.056222	2
0	9321	74	3
0	9325	74.000054	2
0	9332	74.019908	3
0	9336	74.019962	2
0	9343	74.032336	3
0	9347	74.03239	2
0	9354	74.049864	3
0	9358	74.049918	2
0	9364	74.057592	3
0	9368	74.057646	2
0	9376	74.07192	3
0	9380	74.071974	2
0	9386	74.074248	3
0	9390	74.074302	2
0	9495	75	3
0	9499	75.000054	2
0	9505	75.005008	3
0	9509	75.005062	2
0	9516	75.010156	3
0	9520	75.01021	2
0	9527	75.018144	3
0	9531	75.018198	2
0	9539	75.033612	3
0	9543	75.033666	2
0	9549	75.03938	3
0	9553	75.039434	2
0	9559	75.039948	3
0	9563	75.040002	2
0	9669	76	3
0	9673	76.000054	2
0	9679	76.007928	3
0	9683	76.007982	2
0	9691	76.022276	3
0	9695	76.02233	2
0	9701	76.030344	3
0	9705	76.030398	2
0	9712	76.037412	3
0	9716	76.037466	2
0	9724	76.04928	3
0	9728	76.049334	2
0	9735	76.069808	3
0	9739	76.069862	2
0	9843	77	3
0	9847	77.000054	2
0	9853	77.009168	3
0	9857	77.009222	2
0	9864	77.012076	3
0	9868	77.01213	2
0	9876	77.027304	3
0	9880	77.027358	2
0	9886	77.033712	3
0	9890	77.033766	2
0	9897	77.04336	3
0	9901	77.043414	2
0	9908	77.050408	3
0	9912	77.050462	2
0	10017	78	3
0	10021	78.000054	2
0	10027	78.007148	3
0	10031	78.007202	2
0	10039	78.020576	3
0	10043	78.02063	2
0	10050	78.033584	3
0	10054	78.033638	2
0	10060	78.040232	3
0	10064	78.040286	2
0	10071	78.04886	3
0	10075	78.048914	2
0	10082	78.052288	3
0	10086	78.052342	2
0	10191	79	3
0	10195	79.000054	2
0	10202	79.019128	3
0	10206	79.019182	2
0	10213	79.034216	3
0	10217	79.03427	2
0	10223	79.035284	3
0	10227	79.035338	2
0	10235	79.045352	3
0	10239	79.045406	2
0	10246	79.06574	3
0	10250	79.065794	2
0	10257	79.078668	3
0	10261	79.078722	2
0	10365	80	3
0	10369	80.000054	2
0	10376	80.012128	3
0	10380	80.012182	2
0	10387	80.024996	3
0	10391	80.02505	2
0	10397	80.033324	3
0	10401	80.033378	2
0	10408	80.036952	3
0	10412	80.037006	2
0	10420	80.04706	3
0	10424	80.047114	2
0	10431	80.064708	3
0	10435	80.064762	2
0	10539	81	3
0	10543	81.000054	2
0	10550	81.013008	3
0	10554	81.013062	2
0	10560	81.014116	3
0	10564	81.01417	2
0	10570	81.015784	3
0	10574	81.015838	2
0	10580	81.021792	3
0	10584	81.021846	2
0	10592	81.02426	3
0	10596	81.024314	2
0	10604	81.034268	3
0	10609	81.034322	2
0	10713	82	3
0	10717	82.000054	2
0	10724	82.010448	3
0	10728	82.010502	2
0	10734	82.012076	3
0	10738	82.01213	2
0	10746	82.024144	3
0	10750	82.024198	2
0	10756	82.034092	3
0	10760	82.034146	2
0	10767	82.04066	3
0	10771	82.040714	2
0	10779	82.058548	3
0	10783	82.058602	2
0	10887	83	3
0	10892	83.000054	2
0	10899	83.012428	3
0	10903	83.012482	2
0	10910	83.028116	3
0	10914	83.02817	2
0	10920	83.033424	3
0	10924	83.033478	2
0	10931	83.041012	3
0	10935	83.041066	2
0	10943	83.05868	3
0	10947	83.058734	2
0	10954	83.073728	3
0	10958	83.073782	2
0	11062	84	3
0	11066	84.000054	2
0	11072	84.004648	3
0	11076	84.004702	2
0	11083	84.013216	3
0	11087	84.01327	2
0	11094	84.016704	3
0	11098	84.016758	2
0	11106	84.035412	3
0	11110	84.035466	2
0	11116	84.04312	3
0	11120	84.043174	2
0	11127	84.049048	3
0	11131	84.049102	2
0	11236	85	3
0	11240	85.000054	2
0	11246	85.005628	3
0	11250	85.005682	2
0	11257	85.013956	3
0	11261	85.01401	2
0	11269	85.032504	3
0	11273	85.032558	2
0	11280	85.043672	3
0	11284	85.043726	2
0	11290	85.0485	3
0	11294	85.048554	2
0	11302	85.061348	3
0	11306	85.061402	2
0	11410	86	3
0	11414	86.000054	2
0	11421	86.014288	3
0	11425	86.014342	2
0	11432	86.032476	3
0	11436	86.03253	2
0	11443	86.047244	3
0	11447	86.047298	2
0	11454	86.064732	3
0	11458	86.064786	2
0	11464	86.0737	3
0	11468	86.073754	2
0	11476	86.093168	3
0	11480	86.093222	2
0	11584	87	3
0	11588	87.000054	2
0	11594	87.007448	3
0	11598	87.007502	2
0	11604	87.009696	3
0	11608	87.00975	2
0	11617	87.023964	3
0	11621	87.024018	2
0	11627	87.028612	3
0	11631	87.028666	2
0	11639	87.0418	3
0	11643	87.041854	2
0	11650	87.057608	3
0	11654	87.057662	2
0	11758	88	3
0	11762	88.000054	2
0	11768	88.005388	3
0	11772	88.005442	2
0	11780	88.017816	3
0	11784	88.01787	2
0	11791	88.036644	3
0	11795	88.036698	2
0	11801	88.043412	3
0	11805	88.043466	2
0	11812	88.05096	3
0	11816	88.051014	2
0	11823	88.057928	3
0	11827	88.057982	2
0	11932	89	3
0	11936	89.000054	2
0	11942	89.007928	3
0	11946	89.007982	2
0	11954	89.020636	3
0	11958	89.02069	2
0	11964	89.024404	3
0	11968	89.024458	2
0	11974	89.029252	3
0	11978	89.029306	2
0	11985	89.03326	3
0	11989	89.033314	2
0	11998	89.049628	3
0	12002	89.049682	2
0	12106	90	3
0	12110	90.000054	2
0	12116	90.004588	3
0	12120	90.004642	2
0	12128	90.016816	3
0	12132	90.01687	2
0	12138	90.021684	3
0	12142	90.021738	2
0	12148	90.023932	3
0	12152	90.023986	2
0	12159	90.02834	3
0	12163	90.028394	2
0	12172	90.038848	3
0	12176	90.038902	2
0	12280	91	3
0	12284	91.000054	2
0	12291	91.011568	3
0	12295	91.011622	2
0	12302	91.024216	3
0	12306	91.02427	2
0	12312	91.026264	3
0	12316	91.026318	2
0	12322	91.033452	3
0	12326	91.033506	2
0	12335	91.04352	3
0	12339	91.043574	2
0	12345	91.047828	3
0	12349	91.047882	2
0	12454	92	3
0	12458	92.000054	2
0	12464	92.008208	3
0	12468	92.008262	2
0	12475	92.016136	3
0	12479	92.01619	2
0	12487	92.032364	3
0	12491	92.032418	2
0	12498	92.044412	3
0	12502	92.044466	2
0	12508	92.0471	3
0	12512	92.047154	2
0	12519	92.056928	3
0	12523	92.056982	2
0	12628	93	3
0	12632	93.000054	2
0	12639	93.011988	3
0	12643	93.012042	2
0	12649	93.020396	3
0	12653	93.02045	2
0	12659	93.020544	3
0	12663	93.020598	2
0	12672	93.035232	3
0	12676	93.035286	2
0	12683	93.04976	3
0	12687	93.049814	2
0	12694	93.066748	3
0	12698	93.066802	2
0	12802	94	3
0	12806	94.000054	2
0	12813	94.015488	3
0	12817	94.015542	2
0	12824	94.032116	3
0	12828	94.03217	2
0	12834	94.038624	3
0	12838	94.038678	2
0	12846	94.057812	3
0	12850	94.057866	2
0	12857	94.06916	3
0	12861	94.069214	2
0	12867	94.072208	3
0	12871	94.072262	2
0	12976	95	3
0	12980	95.000054	2
0	12987	95.018388	3
0	12991	95.018442	2
0	12997	95.023096	3
0	13001	95.02315	2
0	13009	95.040024	3
0	13013	95.040078	2
0	13019	95.046532	3
0	13023	95.046586	2
0	13031	95.0625	3
0	13035	95.062554	2
0	13042	95.079828	3
0	13046	95.079882	2
0	13151	96	3
0	13155	96.000054	2
0	13161	96.010048	3
0	13166	96.010102	2
0	13173	96.022716	3
0	13177	96.02277	2
0	13184	96.033324	3
0	13188	96.033378	2
0	13195	96.053132	3
0	13199	96.053186	2
0	13206	96.0702	3
0	13210	96.070254	2
0	13217	96.090328	3
0	13221	96.090382	2
0	13325	97	3
0	13329	97.000054	2
0	13335	97.008568	3
0	13339	97.008622	2
0	13346	97.010076	3
0	13350	97.01013	2
0	13357	97.018964	3
0	13361	97.019018	2
0	13367	97.019372	3
0	13371	97.019426	2
0	13378	97.02154	3
0	13382	97.021594	2
0	13391	97.037428	3
0	13395	97.037482	2
0	13499	98	3
0	13503	98.000054	2
0	13510	98.018168	3
0	13514	98.018222	2
0	13521	98.037836	3
0	13525	98.03789	2
0	13531	98.042584	3
0	13535	98.042638	2
0	13543	98.052812	3
0	13547	98.052866	2
0	13554	98.07168	3
0	13558	98.071734	2
0	13565	98.085068	3
0	13569	98.085122	2
0	13673	99	3
0	13677	99.000054	2
0	13683	99.006468	3
0	13687	99.006522	2
0	13695	99.021436	3
0	13699	99.02149	2
0	13705	99.026584	3
0	13709	99.026638	2
0	13717	99.038832	3
0	13721	99.038886	2
0	13728	99.0526	3
0	13732	99.052654	2
0	13739	99.063788	3
0	13743	99.063842	2
0	13847	100	3
0	13851	100.000054	2
0	13857	100.004908	3
0	13861	100.004962	2
0	13869	100.018596	3
0	13873	100.01865	2
0	13879	100.026384	3
0	13883	100.026438	2
0	13890	100.030852	3
0	13894	100.030906	2
0	13901	100.03644	3
0	13905	100.036494	2
0	13913	100.053928	3
0	13917	100.053982	2
0	14021	101	3
0	14025	101.000054	2
0	14031	101.009088	3
0	14035	101.009142	2
0	14042	101.017436	3
0	14046	101.01749	2
0	14054	101.032164	3
0	14058	101.032218	2
0	14064	101.039212	3
0	14068	101.039266	2
0	14074	101.04204	3
0	14078	101.042094	2
0	14085	101.046508	3
0	14089	101.046562	2
0	14195	102	3
0	14199	102.000054	2
0	14205	102.007628	3
0	14209	102.007682	2
0	14217	102.026076	3
0	14221	102.02613	2
0	14228	102.041244	3
0	14232	102.041298	2
0	14239	102.057192	3
0	14243	102.057246	2
0	14249	102.06464	3
0	14253	102.064694	2
0	14261	102.082928	3
0	14265	102.082982	2
0	14369	103	3
0	14373	103.000054	2
0	14379	103.007268	3
0	14383	103.007322	2
0	14391	103.024416	3
0	14395	103.02447	2
0	14402	103.036544	3
0	14406	103.036598	2
0	14412	103.044792	3
0	14416	103.044846	2
0	14424	103.05514	3
0	14428	103.055194	2
0	14435	103.065568	3
0	14439	103.065622	2
0	14543	104	3
0	14547	104.000054	2
0	14554	104.018168	3
0	14558	104.018222	2
0	14564	104.023536	3
0	14568	104.02359	2
0	14574	104.024444	3
0	14578	104.024498	2
0	14587	104.038092	3
0	14591	104.038146	2
0	14597	104.04	3
0	14601	104.040054	2
0	14609	104.059048	3
0	14613	104.059102	2
0	14717	105	3
0	14721	105.000054	2
0	14728	105.017168	3
0	14732	105.017222	2
0	14739	105.035296	3
0	14743	105.03535	2
0	14750	105.047224	3
0	14754	105.047278	2
0	14760	105.052712	3
0	14764	105.052766	2
0	14771	105.0608	3
0	14775	105.060854	2
0	14782	105.070628	3
0	14786	105.070682	2
0	14891	106	3
0	14895	106.000054	2
0	14901	106.003048	3
0	14905	106.003102	2
0	14913	106.015456	3
0	14917	106.01551	2
0	14924	106.035304	3
0	14928	106.035358	2
0	14934	106.040332	3
0	14938	106.040386	2
0	14945	106.04986	3
0	14949	106.049914	2
0	14956	106.053668	3
0	14960	106.053722	2
0	15065	107	3
0	15070	107.000054	2
0	15076	107.000368	3
0	15080	107.000422	2
0	15088	107.020376	3
0	15092	107.02043	2
0	15099	107.031264	3
0	15103	107.031318	2
0	15109	107.033352	3
0	15113	107.033406	2
0	15119	107.04052	3
0	15123	107.040574	2
0	15131	107.046688	3
0	15135	107.046742	2
0	15240	108	3
0	15244	108.000054	2
0	15251	108.017308	3
0	15255	108.017362	2
0	15261	108.026056	3
0	15265	108.02611	2
0	15273	108.038884	3
0	15277	108.038938	2
0	15283	108.047292	3
0	15287	108.047346	2
0	15295	108.06284	3
0	15299	108.062894	2
0	15306	108.075888	3
0	15310	108.075942	2
0	15414	109	3
0	15418	109.000054	2
0	15424	109.007308	3
0	15428	109.007362	2
0	15436	109.022676	3
0	15440	109.02273	2
0	15447	109.041764	3
0	15451	109.041818	2
0	15458	109.060412	3
0	15462	109.060466	2
0	15469	109.07446	3
0	15473	109.074514	2
0	15480	109.087108	3
0	15484	109.087162	2
0	15588	110	3
0	15592	110.000054	2
0	15598	110.002488	3
0	15602	110.002542	2
0	15609	110.010056	3
0	15613	110.01011	2
0	15620	110.019604	3
0	15624	110.019658	2
0	15631	110.023452	3
0	15635	110.023506	2
0	15642	110.03058	3
0	15646	110.030634	2
0	15654	110.043008	3
0	15658	110.043062	2
0	15762	111	3
0	15766	111.000054	2
0	15773	111.015728	3
0	15777	111.015782	2
0	15784	111.035256	3
0	15788	111.03531	2
0	15795	111.045864	3
0	15799	111.045918	2
0	15806	111.061692	3
0	15810	111.061746	2
0	15816	111.06304	3
0	15820	111.063094	2
0	15828	111.075888	3
0	15832	111.075942	2
0	15936	112	3
0	15940	112.000054	2
0	15947	112.011848	3
0	15951	112.011902	2
0	15958	112.030076	3
0	15962	112.03013	2
0	15969	112.049784	3
0	15973	112.049838	2
0	15979	112.057832	3
0	15983	112.057886	2
0	15990	112.0675	3
0	15994	112.067554	2
0	16001	112.075108	3
0	16005	112.075162	2
0	16111	113	3
0	16115	113.000054	2
0	16123	113.014648	3
0	16127	113.014702	2
0	16135	113.026596	3
0	16139	113.02665	2
0	16146	113.044324	3
0	16150	113.044378	2
0	16157	113.061132	3
0	16161	113.061186	2
0	16168	113.07816	3
0	16172	113.078214	2
0	16178	113.083648	3
0	16182	113.083702	2
0	16287	114	3
0	16291	114.000054	2
0	16298	114.010708	3
0	16302	114.010762	2
0	16309	114.021756	3
0	16313	114.02181	2
0	16319	114.022564	3
0	16323	114.022618	2
0	16329	114.026152	3
0	16333	114.026206	2
0	16341	114.03602	3
0	16345	114.036074	2
0	16353	114.052328	3
0	16357	114.052382	2
0	16461	115	3
0	16465	115.000054	2
0	16471	115.001428	3
0	16475	115.001482	2
0	16483	115.016396	3
0	16487	115.01645	2
0	16493	115.022284	3
0	16497	115.022338	2
0	16503	115.024012	3
0	16507	115.024066	2
0	16513	115.02582	3
0	16517	115.025874	2
0	16527	115.041628	3
0	16531	115.041682	2
0	16635	116	3
0	16639	116.000054	2
0	16646	116.014828	3
0	16650	116.014882	2
0	16657	116.029116	3
0	16661	116.02917	2
0	16667	116.035984	3
0	16671	116.036038	2
0	16678	116.042532	3
0	16682	116.042586	2
0	16688	116.04526	3
0	16692	116.045314	2
0	16701	116.061768	3
0	16705	116.061822	2
0	16809	117	3
0	16813	117.000054	2
0	16819	117.006688	3
0	16823	117.006742	2
0	16830	117.012496	3
0	16834	117.01255	2
0	16841	117.016964	3
0	16845	117.017018	2
0	16852	117.023372	3
0	16856	117.023426	2
0	16864	117.04004	3
0	16868	117.040094	2
0	16874	117.044508	3
0	16878	117.044562	2
0	16983	118	3
0	16987	118.000054	2
0	16993	118.005048	3
0	16997	118.005102	2
0	17003	118.007016	3
0	17007	118.00707	2
0	17013	118.008044	3
0	17017	118.008098	2
0	17027	118.023852	3
0	17031	118.023906	2
0	17038	118.04442	3
0	17042	118.044474	2
0	17049	118.056548	3
0	17053	118.056602	2
0	17157	119	3
0	17161	119.000054	2
0	17167	119.001128	3
0	17171	119.001182	2
0	17179	119.020176	3
0	17183	119.02023	2
0	17189	119.027184	3
0	17193	119.027238	2
0	17201	119.038712	3
0	17205	119.038766	2
0	17212	119.05326	3
0	17216	119.053314	2
0	17222	119.054228	3
0	17226	119.054282	2
0	17331	120	3
0	17335	120.000054	2
0	17342	120.013388	3
0	17346	120.013442	2
0	17352	120.015116	3
0	17356	120.01517	2
0	17362	120.016744	3
0	17366	120.016798	2
0	17372	120.020132	3
0	17376	120.020186	2
0	17386	120.03388	3
0	17390	120.033934	2
0	17397	120.047588	3
0	17401	120.047642	2
0	17437	121	3
0	17441	121.00005	2
0	17477	122	3
0	17481	122.00005	2
0	17517	123	3
0	17521	123.00005	2
0	17557	124	3
0	17561	124.00005	2
0	17597	125	3
0	17601	125.00005	2
0	17631	125.256805164378	3
0	17635	125.256859164378	2
0	17644	125.269653164378	3
0	17648	125.269707164378	2
0	17655	125.273861164378	3
0	17659	125.273915164378	2
0	17667	125.283549164378	3
0	17671	125.283603164378	2
0	17695	125.297517995923	3
0	17699	125.297571995923	2
0	17708	125.309365995923	3
0	17712	125.309419995923	2
0	17720	125.328713995923	3
0	17724	125.328767995923	2
0	17731	125.329201995923	3
0	17735	125.329255995923	2
0	17742	125.330369995923	3
0	17746	125.330423995923	2
0	17753	125.332397995923	3
0	17757	125.332451995923	2
0	17764	125.335405995923	3
0	17768	125.335459995923	2
0	17788	125.335754822845	3
0	17792	125.335804822845	2
0	17799	125.335958822845	3
0	17803	125.336008822845	2
0	17810	125.337562822845	3
0	17814	125.337612822845	2
0	17859	125.341671649397	3
0	17864	125.341705649397	2
0	17869	125.341795649397	3
0	17873	125.341849649397	2
0	17881	125.342663649397	3
0	17885	125.342717649397	2
0	17908	125.343266475651	3
0	17913	125.343300475651	2
0	17919	125.343610475651	3
0	17923	125.343664475651	2
0	17930	125.344498475651	3
0	17934	125.344552475651	2
0	17977	125.34893730157	3
0	17982	125.34897130157	2
0	18023	125.352596127196	3
0	18027	125.352650127196	2
0	18067	125.356586952415	3
0	18072	125.356620952415	2
0	18096	125.36815577694	3
0	18101	125.36818977694	2
0	18122	125.368444600938	3
0	18127	125.368478600938	2
0	18152	125.370641424825	3
0	18157	125.370675424825	2
0	18171	125.370790248607	3
0	18176	125.370824248607	2
0	18214	125.37516907225	3
0	18218	125.37522307225	2
0	18262	125.381739895343	3
0	18267	125.381773895343	2
0	18275	125.385783895343	3
0	18279	125.385837895343	2
0	18286	125.386011895343	3
0	18290	125.386065895343	2
0	18297	125.386879895343	3
0	18301	125.386933895343	2
0	18335	125.38806671766	3
0	18339	125.38812071766	2
0	18361	125.388215539891	3
0	18365	125.388269539891	2
0	18385	125.388544362109	3
0	18389	125.388598362109	2
0	18410	125.389247184272	3
0	18415	125.389281184272	2
0	18420	125.389511184272	3
0	18424	125.389565184272	2
0	18454	125.389804006367	3
0	18459	125.389838006367	2
0	18494	126	3
0	18498	126.000054	2
0	18504	126.000908	3
0	18508	126.000962	2
0	18514	126.001776	3
0	18518	126.00183	2
0	18524	126.002524	3
0	18528	126.002578	2
0	18534	126.004952	3
0	18538	126.005006	2
0	18544	126.00804	3
0	18548	126.008094	2
0	18559	126.016628	3
0	18563	126.016682	2
0	18668	127	3
0	18672	127.000054	2
0	18678	127.000208	3
0	18682	127.000262	2
0	18688	127.000936	3
0	18692	127.00099	2
0	18698	127.004184	3
0	18702	127.004238	2
0	18708	127.006952	3
0	18712	127.007006	2
0	18718	127.00776	3
0	18722	127.007814	2
0	18734	127.023048	3
0	18738	127.023102	2
0	18842	128	3
0	18846	128.000054	2
0	18852	128.006748	3
0	18856	128.006802	2
0	18864	128.017716	3
0	18868	128.01777	2
0	18874	128.022684	3
0	18878	128.022738	2
0	18886	128.041332	3
0	18890	128.041386	2
0	18897	128.06062	3
0	18901	128.060674	2
0	18908	128.072168	3
0	18912	128.072222	2
0	19016	129	3
0	19020	129.000054	2
0	19027	129.015528	3
0	19031	129.015582	2
0	19038	129.030936	3
0	19042	129.03099	2
0	19048	129.036244	3
0	19052	129.036298	2
0	19060	129.053072	3
0	19064	129.053126	2
0	19070	129.05616	3
0	19074	129.056214	2
0	19082	129.066308	3
0	19086	129.066362	2
0	19190	130	3
0	19194	130.000054	2
0	19200	130.007568	3
0	19204	130.007622	2
0	19211	130.010516	3
0	19215	130.01057	2
0	19221	130.015484	3
0	19225	130.015538	2
0	19234	130.034832	3
0	19238	130.034886	2
0	19244	130.04012	3
0	19248	130.040174	2
0	19255	130.048668	3
0	19259	130.048722	2
0	19364	131	3
0	19368	131.000054	2
0	19374	131.004248	3
0	19378	131.004302	2
0	19385	131.011176	3
0	19389	131.01123	2
0	19397	131.022504	3
0	19401	131.022558	2
0	19408	131.034512	3
0	19412	131.034566	2
0	19418	131.04306	3
0	19422	131.043114	2
0	19429	131.047188	3
0	19433	131.047242	2
0	19538	132	3
0	19542	132.000054	2
0	19549	132.012988	3
0	19553	132.013042	2
0	19560	132.029076	3
0	19564	132.02913	2
0	19570	132.037244	3
0	19574	132.037298	2
0	19580	132.038092	3
0	19584	132.038146	2
0	19593	132.056	3
0	19597	132.056054	2
0	19603	132.061648	3
0	19607	132.061702	2
0	19712	133	3
0	19716	133.000054	2
0	19723	133.018948	3
0	19727	133.019002	2
0	19733	133.019856	3
0	19737	133.01991	2
0	19743	133.020844	3
0	19747	133.020898	2
0	19756	133.040392	3
0	19760	133.040446	2
0	19767	133.05152	3
0	19771	133.051574	2
0	19777	133.058908	3
0	19781	133.058962	2
0	19886	134	3
0	19890	134.000054	2
0	19897	134.019828	3
0	19901	134.019882	2
0	19908	134.031976	3
0	19912	134.03203	2
0	19918	134.036904	3
0	19922	134.036958	2
0	19930	134.055272	3
0	19934	134.055326	2
0	19940	134.0633	3
0	19944	134.063354	2
0	19951	134.066388	3
0	19955	134.066442	2
0	20060	135	3
0	20064	135.000054	2
0	20070	135.007428	3
0	20074	135.007482	2
0	20081	135.013476	3
0	20085	135.01353	2
0	20093	135.031304	3
0	20097	135.031358	2
0	20103	135.033532	3
0	20107	135.033586	2
0	20113	135.04132	3
0	20118	135.041374	2
0	20125	135.048808	3
0	20129	135.048862	2
0	20234	136	3
0	20238	136.000054	2
0	20245	136.012268	3
0	20249	136.012322	2
0	20256	136.029456	3
0	20260	136.02951	2
0	20267	136.045424	3
0	20271	136.045478	2
0	20278	136.058672	3
0	20282	136.058726	2
0	20288	136.06226	3
0	20292	136.062314	2
0	20300	136.074308	3
0	20304	136.074362	2
0	20408	137	3
0	20412	137.000054	2
0	20418	137.008788	3
0	20422	137.008842	2
0	20430	137.028596	3
0	20434	137.02865	2
0	20441	137.045984	3
0	20445	137.046038	2
0	20451	137.053912	3
0	20455	137.053966	2
0	20462	137.0616	3
0	20466	137.061654	2
0	20473	137.066368	3
0	20477	137.066422	2
0	20585	138	3
0	20589	138.000054	2
0	20595	138.007548	3
0	20599	138.007602	2
0	20607	138.026276	3
0	20611	138.02633	2
0	20617	138.033904	3
0	20621	138.033958	2
0	20628	138.043712	3
0	20632	138.043766	2
0	20640	138.05506	3
0	20644	138.055114	2
0	20650	138.057188	3
0	20654	138.057242	2
0	20759	139	3
0	20763	139.000054	2
0	20770	139.011928	3
0	20774	139.011982	2
0	20781	139.024476	3
0	20785	139.02453	2
0	20791	139.028184	3
0	20795	139.028238	2
0	20802	139.036552	3
0	20806	139.036606	2
0	20813	139.03862	3
0	20817	139.038674	2
0	20825	139.049868	3
0	20829	139.049922	2
0	20933	140	3
0	20937	140.000054	2
0	20944	140.010548	3
0	20948	140.010602	2
0	20954	140.014916	3
0	20958	140.01497	2
0	20966	140.033904	3
0	20970	140.033958	2
0	20977	140.045572	3
0	20981	140.045626	2
0	20987	140.05316	3
0	20991	140.053214	2
0	20999	140.071628	3
0	21003	140.071682	2
0	21107	141	3
0	21111	141.000054	2
0	21117	141.002308	3
0	21121	141.002362	2
0	21127	141.006516	3
0	21131	141.00657	2
0	21138	141.011524	3
0	21142	141.011578	2
0	21151	141.027592	3
0	21155	141.027646	2
0	21161	141.03522	3
0	21165	141.035274	2
0	21173	141.052628	3
0	21177	141.052682	2
0	21281	142	3
0	21285	142.000054	2
0	21292	142.012508	3
0	21296	142.012562	2
0	21302	142.015256	3
0	21306	142.01531	2
0	21314	142.026184	3
0	21318	142.026238	2
0	21325	142.041212	3
0	21329	142.041266	2
0	21335	142.04886	3
0	21339	142.048914	2
0	21346	142.051948	3
0	21350	142.052002	2
0	21455	143	3
0	21459	143.000054	2
0	21465	143.006528	3
0	21469	143.006582	2
0	21476	143.016116	3
0	21480	143.01617	2
0	21487	143.025104	3
0	21491	143.025158	2
0	21499	143.043272	3
0	21503	143.043326	2
0	21510	143.0598	3
0	21514	143.059854	2
0	21520	143.064948	3
0	21524	143.065002	2
0	21629	144	3
0	21634	144.000054	2
0	21641	144.013128	3
0	21645	144.013182	2
0	21652	144.028736	3
0	21656	144.02879	2
0	21662	144.035524	3
0	21666	144.035578	2
0	21674	144.047132	3
0	21678	144.047186	2
0	21684	144.05068	3
0	21688	144.050734	2
0	21696	144.066008	3
0	21700	144.066062	2
0	21804	145	3
0	21808	145.000054	2
0	21814	145.001768	3
0	21818	145.001822	2
0	21826	145.012736	3
0	21830	145.01279	2
0	21836	145.016844	3
0	21840	145.016898	2
0	21846	145.017552	3
0	21850	145.017606	2
0	21859	145.03198	3
0	21863	145.032034	2
0	21870	145.045028	3
0	21874	145.045082	2
0	21978	146	3
0	21982	146.000054	2
0	21989	146.019248	3
0	21993	146.019302	2
0	21999	146.027676	3
0	22003	146.02773	2
0	22011	146.044364	3
0	22015	146.044418	2
0	22021	146.047352	3
0	22025	146.047406	2
0	22033	146.06772	3
0	22037	146.067774	2
0	22043	146.076508	3
0	22047	146.076562	2
0	22152	147	3
0	22156	147.000054	2
0	22162	147.006308	3
0	22166	147.006362	2
0	22173	147.012216	3
0	22177	147.01227	2
0	22183	147.014104	3
0	22187	147.014158	2
0	22196	147.033732	3
0	22200	147.033786	2
0	22207	147.05248	3
0	22211	147.052534	2
0	22218	147.063448	3
0	22222	147.063502	2
0	22326	148	3
0	22330	148.000054	2
0	22337	148.017268	3
0	22341	148.017322	2
0	22347	148.022876	3
0	22351	148.02293	2
0	22359	148.042304	3
0	22363	148.042358	2
0	22369	148.048692	3
0	22373	148.048746	2
0	22379	148.05204	3
0	22383	148.052094	2
0	22390	148.057008	3
0	22394	148.057062	2
0	22500	149	3
0	22504	149.000054	2
0	22510	149.008468	3
0	22514	149.008522	2
0	22521	149.014016	3
0	22525	149.01407	2
0	22533	149.025624	3
0	22537	149.025678	2
0	22543	149.032632	3
0	22547	149.032686	2
0	22554	149.0411	3
0	22558	149.041154	2
0	22565	149.047488	3
0	22569	149.047542	2
0	22674	150	3
0	22678	150.000054	2
0	22685	150.015848	3
0	22689	150.015902	2
0	22695	150.018856	3
0	22699	150.01891	2
0	22707	150.033144	3
0	22711	150.033198	2
0	22717	150.040112	3
0	22721	150.040166	2
0	22729	150.05018	3
0	22733	150.050234	2
0	22740	150.065408	3
0	22744	150.065462	2
0	22848	151	3
0	22852	151.000054	2
0	22859	151.013028	3
0	22863	151.013082	2
0	22869	151.015356	3
0	22873	151.01541	2
0	22879	151.017284	3
0	22883	151.017338	2
0	22889	151.017952	3
0	22893	151.018006	2
0	22903	151.0321	3
0	22907	151.032154	2
0	22913	151.037108	3
0	22917	151.037162	2
0	23022	152	3
0	23026	152.000054	2
0	23032	152.007808	3
0	23036	152.007862	2
0	23043	152.017796	3
0	23047	152.01785	2
0	23054	152.025684	3
0	23058	152.025738	2
0	23066	152.038992	3
0	23070	152.039046	2
0	23076	152.04324	3
0	23080	152.043294	2
0	23086	152.044408	3
0	23090	152.044462	2
0	23196	153	3
0	23200	153.000054	2
0	23207	153.012268	3
0	23211	153.012322	2
0	23218	153.028676	3
0	23222	153.02873	2
0	23229	153.043224	3
0	23233	153.043278	2
0	23239	153.044672	3
0	23243	153.044726	2
0	23249	153.04658	3
0	23253	153.046634	2
0	23259	153.052168	3
0	23263	153.052222	2
0	23370	154	3
0	23374	154.000054	2
0	23381	154.019088	3
0	23385	154.019142	2
0	23391	154.022716	3
0	23395	154.02277	2
0	23401	154.023664	3
0	23405	154.023718	2
0	23414	154.042012	3
0	23418	154.042066	2
0	23424	154.04698	3
0	23428	154.047034	2
0	23435	154.055008	3
0	23439	154.055062	2
0	23544	155	3
0	23548	155.000054	2
0	23556	155.013448	3
0	23560	155.013502	2
0	23566	155.017656	3
0	23570	155.01771	2
0	23577	155.027384	3
0	23581	155.027438	2
0	23588	155.031912	3
0	23592	155.031966	2
0	23600	155.04274	3
0	23604	155.042794	2
0	23610	155.045088	3
0	23614	155.045142	2
0	23719	156	3
0	23723	156.000054	2
0	23729	156.003828	3
0	23733	156.003882	2
0	23739	156.006176	3
0	23743	156.00623	2
0	23752	156.020524	3
0	23756	156.020578	2
0	23763	156.040232	3
0	23767	156.040286	2
0	23774	156.05234	3
0	23778	156.052394	2
0	23784	156.056288	3
0	23788	156.056342	2
0	23893	157	3
0	23897	157.000054	2
0	23904	157.017888	3
0	23908	157.017942	2
0	23915	157.036516	3
0	23919	157.03657	2
0	23925	157.042964	3
0	23929	157.043018	2
0	23937	157.053192	3
0	23941	157.053246	2
0	23947	157.06012	3
0	23951	157.060174	2
0	23959	157.076428	3
0	23963	157.076482	2
0	24067	158	3
0	24071	158.000054	2
0	24077	158.005608	3
0	24081	158.005662	2
0	24089	158.018556	3
0	24093	158.01861	2
0	24100	158.032284	3
0	24104	158.032338	2
0	24110	158.033192	3
0	24114	158.033246	2
0	24121	158.04298	3
0	24125	158.043034	2
0	24132	158.046988	3
0	24136	158.047042	2
0	24241	159	3
0	24245	159.000054	2
0	24251	159.006968	3
0	24255	159.007022	2
0	24263	159.023796	3
0	24267	159.02385	2
0	24274	159.034824	3
0	24278	159.034878	2
0	24284	159.043652	3
0	24288	159.043706	2
0	24295	159.05032	3
0	24299	159.050374	2
0	24307	159.062748	3
0	24311	159.062802	2
0	24415	160	3
0	24419	160.000054	2
0	24425	160.001728	3
0	24429	160.001782	2
0	24435	160.004136	3
0	24439	160.00419	2
0	24445	160.007384	3
0	24449	160.007438	2
0	24459	160.024592	3
0	24463	160.024646	2
0	24470	160.035	3
0	24474	160.035054	2
0	24480	160.040448	3
0	24484	160.040502	2
0	24589	161	3
0	24593	161.000054	2
0	24599	161.009508	3
0	24603	161.009562	2
0	24610	161.012176	3
0	24614	161.01223	2
0	24620	161.012704	3
0	24624	161.012758	2
0	24633	161.032992	3
0	24637	161.033046	2
0	24644	161.04732	3
0	24648	161.047374	2
0	24655	161.061948	3
0	24659	161.062002	2
0	24763	162	3
0	24767	162.000054	2
0	24773	162.002768	3
0	24777	162.002822	2
0	24784	162.010756	3
0	24788	162.01081	2
0	24796	162.027504	3
0	24800	162.027558	2
0	24807	162.044852	3
0	24811	162.044906	2
0	24817	162.04838	3
0	24821	162.048434	2
0	24829	162.065368	3
0	24833	162.065422	2
0	24937	163	3
0	24941	163.000054	2
0	24948	163.017548	3
0	24952	163.017602	2
0	24959	163.035436	3
0	24963	163.03549	2
0	24969	163.036744	3
0	24973	163.036798	2
0	24979	163.036992	3
0	24983	163.037046	2
0	24989	163.0386	3
0	24993	163.038654	2
0	25003	163.055868	3
0	25007	163.055922	2
0	25111	164	3
0	25115	164.000054	2
0	25121	164.001468	3
0	25125	164.001522	2
0	25133	164.018396	3
0	25137	164.01845	2
0	25143	164.025844	3
0	25147	164.025898	2
0	25154	164.032552	3
0	25158	164.032606	2
0	25165	164.03792	3
0	25169	164.037974	2
0	25177	164.049088	3
0	25181	164.049142	2
0	25285	165	3
0	25289	165.000054	2
0	25296	165.015688	3
0	25300	165.015742	2
0	25306	165.023736	3
0	25310	165.02379	2
0	25318	165.041744	3
0	25322	165.041798	2
0	25328	165.043872	3
0	25332	165.043926	2
0	25340	165.05478	3
0	25344	165.054834	2
0	25351	165.072348	3
0	25355	165.072402	2
0	25459	166	3
0	25463	166.000054	2
0	25470	166.010588	3
0	25474	166.010642	2
0	25481	166.025016	3
0	25485	166.02507	2
0	25491	166.030764	3
0	25495	166.030818	2
0	25503	166.041132	3
0	25507	166.041186	2
0	25513	166.0483	3
0	25517	166.048354	2
0	25523	166.049308	3
0	25527	166.049362	2
0	25633	167	3
0	25637	167.000054	2
0	25644	167.017548	3
0	25648	167.017602	2
0	25655	167.029436	3
0	25659	167.02949	2
0	25666	167.047284	3
0	25670	167.047338	2
0	25677	167.066472	3
0	25681	167.066526	2
0	25687	167.07516	3
0	25691	167.075214	2
0	25698	167.078348	3
0	25702	167.078402	2
0	25807	168	3
0	25812	168.000054	2
0	25819	168.010088	3
0	25823	168.010142	2
0	25829	168.017476	3
0	25833	168.01753	2
0	25840	168.022084	3
0	25844	168.022138	2
0	25850	168.024292	3
0	25854	168.024346	2
0	25861	168.02978	3
0	25865	168.029834	2
0	25873	168.036168	3
0	25877	168.036222	2
0	25982	169	3
0	25986	169.000054	2
0	25992	169.000648	3
0	25996	169.000702	2
0	26004	169.020236	3
0	26008	169.02029	2
0	26014	169.021824	3
0	26018	169.021878	2
0	26024	169.022972	3
0	26028	169.023026	2
0	26037	169.0336	3
0	26041	169.033654	2
0	26048	169.052148	3
0	26052	169.052202	2
0	26156	170	3
0	26160	170.000054	2
0	26166	170.000848	3
0	26170	170.000902	2
0	26176	170.005176	3
0	26180	170.00523	2
0	26186	170.008344	3
0	26190	170.008398	2
0	26196	170.009712	3
0	26200	170.009766	2
0	26211	170.02244	3
0	26215	170.022494	2
0	26221	170.026208	3
0	26225	170.026262	2
0	26330	171	3
0	26334	171.000054	2
0	26341	171.017688	3
0	26345	171.017742	2
0	26352	171.036756	3
0	26356	171.03681	2
0	26363	171.048444	3
0	26367	171.048498	2
0	26374	171.067372	3
0	26378	171.067426	2
0	26385	171.0794	3
0	26389	171.079454	2
0	26395	171.088788	3
0	26399	171.088842	2
0	26504	172	3
0	26508	172.000054	2
0	26515	172.012548	3
0	26519	172.012602	2
0	26525	172.015476	3
0	26529	172.01553	2
0	26536	172.022824	3
0	26540	172.022878	2
0	26547	172.031372	3
0	26551	172.031426	2
0	26559	172.0494	3
0	26563	172.049454	2
0	26569	172.053088	3
0	26573	172.053142	2
0	26678	173	3
0	26682	173.000054	2
0	26688	173.009348	3
0	26692	173.009402	2
0	26700	173.024556	3
0	26704	173.02461	2
0	26710	173.030604	3
0	26714	173.030658	2
0	26721	173.038112	3
0	26725	173.038166	2
0	26733	173.0487	3
0	26737	173.048754	2
0	26744	173.064248	3
0	26748	173.064302	2
0	26852	174	3
0	26856	174.000054	2
0	26862	174.005588	3
0	26866	174.005642	2
0	26873	174.012116	3
0	26877	174.01217	2
0	26885	174.028904	3
0	26889	174.028958	2
0	26896	174.044672	3
0	26900	174.044726	2
0	26907	174.06094	3
0	26911	174.060994	2
0	26917	174.066288	3
0	26921	174.066342	2
0	27026	175	3
0	27030	175.000054	2
0	27036	175.004528	3
0	27040	175.004582	2
0	27048	175.017516	3
0	27052	175.01757	2
0	27059	175.035744	3
0	27063	175.035798	2
0	27069	175.037332	3
0	27073	175.037386	2
0	27081	175.05206	3
0	27085	175.052114	2
0	27091	175.058088	3
0	27095	175.058142	2
0	27200	176	3
0	27204	176.000054	2
0	27211	176.015648	3
0	27215	176.015702	2
0	27222	176.029036	3
0	27226	176.02909	2
0	27233	176.041904	3
0	27237	176.041958	2
0	27243	176.048012	3
0	27247	176.048066	2
0	27253	176.0519	3
0	27257	176.051954	2
0	27266	176.066748	3
0	27270	176.066802	2
0	27374	177	3
0	27378	177.000054	2
0	27384	177.007048	3
0	27388	177.007102	2
0	27395	177.013216	3
0	27399	177.01327	2
0	27406	177.020704	3
0	27410	177.020758	2
0	27418	177.032852	3
0	27422	177.032906	2
0	27429	177.05194	3
0	27433	177.051994	2
0	27439	177.058388	3
0	27443	177.058442	2
0	27548	178	3
0	27552	178.000054	2
0	27558	178.002068	3
0	27562	178.002122	2
0	27570	178.016236	3
0	27574	178.01629	2
0	27581	178.026644	3
0	27585	178.026698	2
0	27592	178.036832	3
0	27596	178.036886	2
0	27602	178.0456	3
0	27606	178.045654	2
0	27613	178.053348	3
0	27617	178.053402	2
0	27722	179	3
0	27726	179.000054	2
0	27732	179.009968	3
0	27736	179.010022	2
0	27744	179.022236	3
0	27748	179.02229	2
0	27754	179.031784	3
0	27758	179.031838	2
0	27765	179.037052	3
0	27769	179.037106	2
0	27777	179.04906	3
0	27781	179.049114	2
0	27787	179.052928	3
0	27791	179.052982	2
0	27896	180	3
0	27900	180.000054	2
0	27907	180.020028	3
0	27911	180.020082	2
0	27918	180.036376	3
0	27922	180.03643	2
0	27928	180.043004	3
0	27932	180.043058	2
0	27940	180.060952	3
0	27944	180.061006	2
0	27951	180.0777	3
0	27955	180.077754	2
0	27962	180.093928	3
0	27966	180.093982	2
0	28070	181	3
0	28074	181.000054	2
0	28080	181.001688	3
0	28084	181.001742	2
0	28092	181.015756	3
0	28096	181.01581	2
0	28102	181.023764	3
0	28106	181.023818	2
0	28113	181.033292	3
0	28117	181.033346	2
0	28125	181.05012	3
0	28129	181.050174	2
0	28136	181.060688	3
0	28140	181.060742	2
0	28244	182	3
0	28248	182.000054	2
0	28255	182.010428	3
0	28259	182.010482	2
0	28265	182.018996	3
0	28269	182.01905	2
0	28277	182.038484	3
0	28281	182.038538	2
0	28287	182.040372	3
0	28291	182.040426	2
0	28299	182.0552	3
0	28303	182.055254	2
0	28310	182.074888	3
0	28314	182.074942	2
0	28418	183	3
0	28423	183.000054	2
0	28429	183.000708	3
0	28433	183.000762	2
0	28441	183.016916	3
0	28445	183.01697	2
0	28451	183.023244	3
0	28455	183.023298	2
0	28463	183.039272	3
0	28467	183.039326	2
0	28473	183.0468	3
0	28477	183.046854	2
0	28484	183.054128	3
0	28488	183.054182	2
0	28593	184	3
0	28597	184.000054	2
0	28604	184.013128	3
0	28608	184.013182	2
0	28614	184.017656	3
0	28618	184.01771	2
0	28626	184.032584	3
0	28630	184.032638	2
0	28637	184.049592	3
0	28641	184.049646	2
0	28648	184.06702	3
0	28652	184.067074	2
0	28658	184.070488	3
0	28662	184.070542	2
0	28768	185	3
0	28772	185.000054	2
0	28779	185.016328	3
0	28783	185.016382	2
0	28789	185.023896	3
0	28793	185.02395	2
0	28801	185.041544	3
0	28805	185.041598	2
0	28811	185.048792	3
0	28815	185.048846	2
0	28822	185.05232	3
0	28826	185.052374	2
0	28832	185.057468	3
0	28836	185.057522	2
0	28942	186	3
0	28946	186.000054	2
0	28953	186.016448	3
0	28957	186.016502	2
0	28964	186.029696	3
0	28968	186.02975	2
0	28974	186.030564	3
0	28978	186.030618	2
0	28986	186.049932	3
0	28990	186.049986	2
0	28997	186.0622	3
0	29001	186.062254	2
0	29008	186.082288	3
0	29012	186.082342	2
0	29116	187	3
0	29120	187.000054	2
0	29127	187.019408	3
0	29131	187.019462	2
0	29137	187.025196	3
0	29141	187.02525	2
0	29149	187.045764	3
0	29153	187.045818	2
0	29159	187.051152	3
0	29163	187.051206	2
0	29170	187.05596	3
0	29174	187.056014	2
0	29181	187.065808	3
0	29185	187.065862	2
0	29290	188	3
0	29294	188.000054	2
0	29300	188.009668	3
0	29304	188.009722	2
0	29311	188.015216	3
0	29315	188.01527	2
0	29322	188.020764	3
0	29326	188.020818	2
0	29332	188.022512	3
0	29336	188.022566	2
0	29344	188.03232	3
0	29348	188.032374	2
0	29355	188.041408	3
0	29359	188.041462	2
0	29464	189	3
0	29468	189.000054	2
0	29474	189.005908	3
0	29478	189.005962	2
0	29486	189.022716	3
0	29490	189.02277	2
0	29496	189.028424	3
0	29500	189.028478	2
0	29508	189.044352	3
0	29512	189.044406	2
0	29518	189.05332	3
0	29522	189.053374	2
0	29530	189.065068	3
0	29534	189.065122	2
0	29638	190	3
0	29642	190.000054	2
0	29648	190.004648	3
0	29652	190.004702	2
0	29659	190.011636	3
0	29663	190.01169	2
0	29670	190.016784	3
0	29674	190.016838	2
0	29682	190.028812	3
0	29686	190.028866	2
0	29693	190.04452	3
0	29697	190.044574	2
0	29704	190.056148	3
0	29708	190.056202	2
0	29812	191	3
0	29816	191.000054	2
0	29822	191.009988	3
0	29826	191.010042	2
0	29834	191.026576	3
0	29838	191.02663	2
0	29844	191.029084	3
0	29848	191.029138	2
0	29854	191.036012	3
0	29858	191.036066	2
0	29865	191.03666	3
0	29869	191.036714	2
0	29876	191.040268	3
0	29880	191.040322	2
0	29986	192	3
0	29990	192.000054	2
0	29996	192.009028	3
0	30000	192.009082	2
0	30008	192.026696	3
0	30012	192.02675	2
0	30019	192.041424	3
0	30023	192.041478	2
0	30030	192.051952	3
0	30034	192.052006	2
0	30041	192.07122	3
0	30045	192.071274	2
0	30051	192.074668	3
0	30055	192.074722	2
0	30160	193	3
0	30164	193.000054	2
0	30170	193.004168	3
0	30174	193.004222	2
0	30180	193.006056	3
0	30184	193.00611	2
0	30191	193.012684	3
0	30195	193.012738	2
0	30203	193.018432	3
0	30207	193.018486	2
0	30213	193.0187	3
0	30217	193.018754	2
0	30226	193.036148	3
0	30230	193.036202	2
0	30334	194	3
0	30338	194.000054	2
0	30345	194.016088	3
0	30349	194.016142	2
0	30355	194.021016	3
0	30359	194.02107	2
0	30367	194.041484	3
0	30371	194.041538	2
0	30377	194.042192	3
0	30381	194.042246	2
0	30387	194.04538	3
0	30391	194.045434	2
0	30399	194.053268	3
0	30403	194.053322	2
0	30508	195	3
0	30512	195.000054	2
0	30518	195.007468	3
0	30522	195.007522	2
0	30529	195.015356	3
0	30533	195.01541	2
0	30541	195.031924	3
0	30545	195.031978	2
0	30552	195.048172	3
0	30556	195.048226	2
0	30562	195.04846	3
0	30566	195.048514	2
0	30572	195.056128	3
0	30576	195.056182	2
0	30682	196	3
0	30686	196.000054	2
0	30693	196.011948	3
0	30697	196.012002	2
0	30704	196.030116	3
0	30708	196.03017	2
0	30715	196.047184	3
0	30719	196.047238	2
0	30725	196.048952	3
0	30729	196.049006	2
0	30735	196.05376	3
0	30739	196.053814	2
0	30745	196.056108	3
0	30749	196.056162	2
0	30856	197	3
0	30860	197.000054	2
0	30867	197.012688	3
0	30871	197.012742	2
0	30878	197.031976	3
0	30882	197.03203	2
0	30888	197.037204	3
0	30892	197.037258	2
0	30898	197.037352	3
0	30902	197.037406	2
0	30911	197.0532	3
0	30915	197.053254	2
0	30921	197.061608	3
0	30925	197.061662	2
0	31030	198	3
0	31034	198.000054	2
0	31041	198.012408	3
0	31045	198.012462	2
0	31052	198.025696	3
0	31056	198.02575	2
0	31062	198.026604	3
0	31066	198.026658	2
0	31074	198.041132	3
0	31078	198.041186	2
0	31085	198.05922	3
0	31089	198.059274	2
0	31095	198.062228	3
0	31099	198.062282	2
0	31204	199	3
0	31208	199.000054	2
0	31215	199.014268	3
0	31219	199.014322	2
0	31225	199.019756	3
0	31229	199.01981	2
0	31237	199.038004	3
0	31241	199.038058	2
0	31248	199.048112	3
0	31252	199.048166	2
0	31259	199.06442	3
0	31263	199.064474	2
0	31270	199.083568	3
0	31274	199.083622	2
0	31378	200	3
0	31382	200.000054	2
0	31388	200.007988	3
0	31392	200.008042	2
0	31399	200.012136	3
0	31403	200.01219	2
0	31410	200.022124	3
0	31414	200.022178	2
0	31422	200.037092	3
0	31426	200.037146	2
0	31432	200.0376	3
0	31436	200.037654	2
0	31442	200.037788	3
0	31446	200.037842	2
0	31552	201	3
0	31556	201.000054	2
0	31562	201.008048	3
0	31566	201.008102	2
0	31573	201.014296	3
0	31577	201.01435	2
0	31584	201.021004	3
0	31588	201.021058	2
0	31595	201.028032	3
0	31599	201.028086	2
0	31607	201.03848	3
0	31611	201.038534	2
0	31618	201.051108	3
0	31622	201.051162	2
0	31726	202	3
0	31730	202.000054	2
0	31737	202.010348	3
0	31741	202.010402	2
0	31748	202.030116	3
0	31752	202.03017	2
0	31758	202.033404	3
0	31762	202.033458	2
0	31770	202.052532	3
0	31774	202.052586	2
0	31780	202.05402	3
0	31784	202.054074	2
0	31792	202.065528	3
0	31796	202.065582	2
0	31900	203	3
0	31904	203.000054	2
0	31911	203.018668	3
0	31915	203.018722	2
0	31921	203.022536	3
0	31925	203.02259	2
0	31933	203.034284	3
0	31937	203.034338	2
0	31943	203.040732	3
0	31947	203.040786	2
0	31955	203.05176	3
0	31959	203.051814	2
0	31966	203.068008	3
0	31970	203.068062	2
0	32074	204	3
0	32078	204.000054	2
0	32084	204.002668	3
0	32088	204.002722	2
0	32094	204.004256	3
0	32098	204.00431	2
0	32104	204.005904	3
0	32108	204.005958	2
0	32114	204.007992	3
0	32118	204.008046	2
0	32125	204.01226	3
0	32129	204.012314	2
0	32140	204.023408	3
0	32144	204.023462	2
0	32248	205	3
0	32252	205.000054	2
0	32258	205.002608	3
0	32262	205.002662	2
0	32270	205.014496	3
0	32274	205.01455	2
0	32280	205.020464	3
0	32284	205.020518	2
0	32291	205.029972	3
0	32295	205.030026	2
0	32303	205.0494	3
0	32307	205.049454	2
0	32314	205.061048	3
0	32318	205.061102	2
0	32424	206	3
0	32428	206.000054	2
0	32434	206.001948	3
0	32438	206.002002	2
0	32446	206.012856	3
0	32450	206.01291	2
0	32457	206.024704	3
0	32461	206.024758	2
0	32468	206.043772	3
0	32472	206.043826	2
0	32478	206.04838	3
0	32482	206.048434	2
0	32490	206.065768	3
0	32494	206.065822	2
0	32598	207	3
0	32602	207.000054	2
0	32609	207.019488	3
0	32613	207.019542	2
0	32620	207.032216	3
0	32624	207.03227	2
0	32631	207.043944	3
0	32635	207.043998	2
0	32642	207.056792	3
0	32646	207.056846	2
0	32653	207.07116	3
0	32657	207.071214	2
0	32663	207.077668	3
0	32667	207.077722	2
0	32772	208	3
0	32776	208.000054	2
0	32783	208.012828	3
0	32787	208.012882	2
0	32793	208.016836	3
0	32797	208.01689	2
0	32804	208.023424	3
0	32808	208.023478	2
0	32814	208.024812	3
0	32818	208.024866	2
0	32824	208.02528	3
0	32828	208.025334	2
0	32835	208.029208	3
0	32839	208.029262	2
0	32947	209	3
0	32951	209.000054	2
0	32958	209.013528	3
0	32962	209.013582	2
0	32969	209.031696	3
0	32973	209.03175	2
0	32979	209.037244	3
0	32983	209.037298	2
0	32991	209.049912	3
0	32995	209.049966	2
0	33002	209.06506	3
0	33006	209.065114	2
0	33013	209.084708	3
0	33017	209.084762	2
0	33121	210	3
0	33125	210.000054	2
0	33132	210.017248	3
0	33136	210.017302	2
0	33143	210.027556	3
0	33147	210.02761	2
0	33154	210.041904	3
0	33158	210.041958	2
0	33165	210.058212	3
0	33169	210.058266	2
0	33176	210.07236	3
0	33180	210.072414	2
0	33186	210.073228	3
0	33190	210.073282	2
0	33297	211	3
0	33301	211.000054	2
0	33308	211.014628	3
0	33312	211.014682	2
0	33319	211.029116	3
0	33323	211.02917	2
0	33330	211.041304	3
0	33334	211.041358	2
0	33340	211.043692	3
0	33344	211.043746	2
0	33350	211.04598	3
0	33354	211.046034	2
0	33360	211.049108	3
0	33364	211.049162	2
0	33471	212	3
0	33475	212.000054	2
0	33482	212.020208	3
0	33486	212.020262	2
0	33493	212.035336	3
0	33497	212.03539	2
0	33504	212.054224	3
0	33508	212.054278	2
0	33515	212.064872	3
0	33519	212.064926	2
0	33526	212.08128	3
0	33530	212.081334	2
0	33536	212.090068	3
0	33540	212.090122	2
0	33645	213	3
0	33649	213.000054	2
0	33655	213.005608	3
0	33659	213.005662	2
0	33667	213.019916	3
0	33671	213.01997	2
0	33678	213.031164	3
0	33682	213.031218	2
0	33688	213.039932	3
0	33692	213.039986	2
0	33700	213.05476	3
0	33704	213.054814	2
0	33710	213.057408	3
0	33714	213.057462	2
0	33819	214	3
0	33823	214.000054	2
0	33829	214.000668	3
0	33833	214.000722	2
0	33841	214.013516	3
0	33845	214.01357	2
0	33852	214.027964	3
0	33856	214.028018	2
0	33863	214.044212	3
0	33867	214.044266	2
[...]
92	17853	111.1	0
92	17853	111.2	0
92	17853	111.3	0
92	17853	111.4	0
92	17853	111.5	0
92	17853	111.6	0
92	17853	111.7	0
92	17853	111.8	0
92	17853	111.9	0
92	17853	112	0
92	17853	112.1	0
92	17853	112.2	0
92	17853	112.3	0
92	17853	112.4	0
92	17853	112.5	0
92	17853	112.6	0
92	17853	112.7	0
92	17853	112.8	0
92	17853	112.9	0
92	17853	113	0
92	17853	113.1	0
92	17853	113.2	0
92	17853	113.3	0
92	17853	113.4	0
92	17853	113.5	0
92	17853	113.6	0
92	17853	113.7	0
92	17853	113.8	0
92	17853	113.9	0
92	17853	114	0
92	17853	114.1	0
92	17853	114.2	0
92	17853	114.3	0
92	17853	114.4	0
92	17853	114.5	0
92	17853	114.6	0
92	17853	114.7	0
92	17853	114.8	0
92	17853	114.9	0
92	17853	115	0
92	17853	115.1	0
92	17853	115.2	0
92	17853	115.3	0
92	17853	115.4	0
92	17853	115.5	0
92	17853	115.6	0
92	17853	115.7	0
92	17853	115.8	0
92	17853	115.9	0
92	17853	116	0
92	17853	116.1	0
92	17853	116.2	0
92	17853	116.3	0
92	17853	116.4	0
92	17853	116.5	0
92	17853	116.6	0
92	17853	116.7	0
92	17853	116.8	0
92	17853	116.9	0
92	17853	117	0
92	17853	117.1	0
92	17853	117.2	0
92	17853	117.3	0
92	17853	117.4	0
92	17853	117.5	0
92	17853	117.6	0
92	17853	117.7	0
92	17853	117.8	0
92	17853	117.9	0
92	17853	118	0
92	17853	118.1	0
92	17853	118.2	0
92	17853	118.3	0
92	17853	118.4	0
92	17853	118.5	0
92	17853	118.6	0
92	17853	118.7	0
92	17853	118.8	0
92	17853	118.9	0
92	17853	119	0
92	17853	119.1	0
92	17853	119.2	0
92	17853	119.3	0
92	17853	119.4	0
92	17853	119.5	0
92	17853	119.6	0
92	17853	119.7	0
92	17853	119.8	0
92	17853	119.9	0
92	17853	120	0
92	17853	120.1	0
92	17853	120.2	0
92	17853	120.3	0
92	17853	120.4	0
92	17853	120.5	0
92	17853	120.6	0
92	17853	120.7	0
92	17853	120.8	0
92	17853	120.9	0
92	17853	121	0
92	17853	121.1	0
92	17853	121.2	0
92	17853	121.3	0
92	17853	121.4	0
92	17853	121.5	0
92	17853	121.6	0
92	17853	121.7	0
92	17853	121.8	0
92	17853	121.9	0
92	17853	122	0
92	17853	122.1	0
92	17853	122.2	0
92	17853	122.3	0
92	17853	122.4	0
92	17853	122.5	0
92	17853	122.6	0
92	17853	122.7	0
92	17853	122.8	0
92	17853	122.9	0
92	17853	123	0
92	17853	123.1	0
92	17853	123.2	0
92	17853	123.3	0
92	17853	123.4	0
92	17853	123.5	0
92	17853	123.6	0
92	17853	123.7	0
92	17853	123.8	0
92	17853	123.9	0
92	17853	124	0
92	17853	124.1	0
92	17853	124.2	0
92	17853	124.3	0
92	17853	124.4	0
92	17853	124.5	0
92	17853	124.6	0
92	17853	124.7	0
92	17853	124.8	0
92	17853	124.9	0
92	17853	125	0
92	17853	125.1	0
92	17853	125.2	0
92	17853	125.3	0
92	35774	125.4	5600
92	35774	125.5	0
92	35774	125.6	0
92	35774	125.7	0
92	35774	125.8	0
92	35774	125.9	0
92	35774	126	0
92	35774	126.1	0
92	35774	126.2	0
92	35774	126.3	0
92	35774	126.4	0
92	35774	126.5	0
92	35774	126.6	0
92	35774	126.7	0
92	35774	126.8	0
92	35774	126.9	0
92	35774	127	0
92	35774	127.1	0
92	35774	127.2	0
92	35774	127.3	0
92	35774	127.4	0
92	35774	127.5	0
92	35774	127.6	0
92	35774	127.7	0
92	35774	127.8	0
92	35774	127.9	0
92	35774	128	0
92	35774	128.1	0
92	35774	128.2	0
92	35774	128.3	0
92	35774	128.4	0
92	35774	128.5	0
92	35774	128.6	0
92	35774	128.7	0
92	35774	128.8	0
92	35774	128.9	0
92	35774	129	0
92	35774	129.1	0
92	35774	129.2	0
92	35774	129.3	0
92	35774	129.4	0
92	35774	129.5	0
92	35774	129.6	0
92	35774	129.7	0
92	35774	129.8	0
92	35774	129.9	0
92	35774	130	0
92	35774	130.1	0
92	35774	130.2	0
92	35774	130.3	0
92	35774	130.4	0
92	35774	130.5	0
92	35774	130.6	0
92	35774	130.7	0
92	35774	130.8	0
92	35774	130.9	0
92	35774	131	0
92	35774	131.1	0
92	35774	131.2	0
92	35774	131.3	0
92	35774	131.4	0
92	35774	131.5	0
92	35774	131.6	0
92	35774	131.7	0
92	35774	131.8	0
92	35774	131.9	0
92	35774	132	0
92	35774	132.1	0
92	35774	132.2	0
92	35774	132.3	0
92	35774	132.4	0
92	35774	132.5	0
92	35774	132.6	0
92	35774	132.7	0
92	35774	132.8	0
92	35774	132.9	0
92	35774	133	0
92	35774	133.1	0
92	35774	133.2	0
92	35774	133.3	0
92	35774	133.4	0
92	35774	133.5	0
92	35774	133.6	0
92	35774	133.7	0
92	35774	133.8	0
92	35774	133.9	0
92	35774	134	0
92	35774	134.1	0
92	35774	134.2	0
92	35774	134.3	0
92	35774	134.4	0
92	35774	134.5	0
92	35774	134.6	0
92	35774	134.7	0
92	35774	134.8	0
92	35774	134.9	0
92	35774	135	0
92	35774	135.1	0
92	35774	135.2	0
92	35774	135.3	0
92	35774	135.4	0
92	35774	135.5	0
92	35774	135.6	0
92	35774	135.7	0
92	35774	135.8	0
92	35774	135.9	0
92	35774	136	0
92	35774	136.1	0
92	35774	136.2	0
92	35774	136.3	0
92	35774	136.4	0
92	35774	136.5	0
92	35774	136.6	0
92	35774	136.7	0
92	35774	136.8	0
92	35774	136.9	0
92	35774	137	0
92	35774	137.1	0
92	35774	137.2	0
92	35774	137.3	0
92	35774	137.4	0
92	35774	137.5	0
92	35774	137.6	0
92	35774	137.7	0
92	35774	137.8	0
92	35774	137.9	0
92	35774	138	0
92	35774	138.1	0
92	35774	138.2	0
92	35774	138.3	0
92	35774	138.4	0
92	35774	138.5	0
92	35774	138.6	0
92	35774	138.7	0
92	35774	138.8	0
92	35774	138.9	0
92	35774	139	0
92	35774	139.1	0
92	35774	139.2	0
92	35774	139.3	0
92	35774	139.4	0
92	35774	139.5	0
92	35774	139.6	0
92	35774	139.7	0
92	35774	139.8	0
92	35774	139.9	0
92	35774	140	0
92	35774	140.1	0
92	35774	140.2	0
92	35774	140.3	0
92	35774	140.4	0
92	35774	140.5	0
92	35774	140.6	0
92	35774	140.7	0
92	35774	140.8	0
92	35774	140.9	0
92	35774	141	0
92	35774	141.1	0
92	35774	141.2	0
92	35774	141.3	0
92	35774	141.4	0
92	35774	141.5	0
92	35774	141.6	0
92	35774	141.7	0
92	35774	141.8	0
92	35774	141.9	0
92	35774	142	0
92	35774	142.1	0
92	35774	142.2	0
92	35774	142.3	0
92	35774	142.4	0
92	35774	142.5	0
92	35774	142.6	0
92	35774	142.7	0
92	35774	142.8	0
92	35774	142.9	0
92	35774	143	0
92	35774	143.1	0
92	35774	143.2	0
92	35774	143.3	0
92	35774	143.4	0
92	35774	143.5	0
92	35774	143.6	0
92	35774	143.7	0
92	35774	143.8	0
92	35774	143.9	0
92	35774	144	0
92	35774	144.1	0
92	35774	144.2	0
92	35774	144.3	0
92	35774	144.4	0
92	35774	144.5	0
92	35774	144.6	0
92	35774	144.7	0
92	35774	144.8	0
92	35774	144.9	0
92	35774	145	0
92	35774	145.1	0
92	35774	145.2	0
92	35774	145.3	0
92	35774	145.4	0
92	35774	145.5	0
92	35774	145.6	0
92	35774	145.7	0
92	35774	145.8	0
92	35774	145.9	0
92	35774	146	0
92	35774	146.1	0
92	35774	146.2	0
92	35774	146.3	0
92	35774	146.4	0
92	35774	146.5	0
92	35774	146.6	0
92	35774	146.7	0
92	35774	146.8	0
92	35774	146.9	0
92	35774	147	0
92	35774	147.1	0
92	35774	147.2	0
92	35774	147.3	0
92	35774	147.4	0
92	35774	147.5	0
92	35774	147.6	0
92	35774	147.7	0
92	35774	147.8	0
92	35774	147.9	0
92	35774	148	0
92	35774	148.1	0
92	35774	148.2	0
92	35774	148.3	0
92	35774	148.4	0
92	35774	148.5	0
92	35774	148.6	0
92	35774	148.7	0
92	35774	148.8	0
92	35774	148.9	0
92	35774	149	0
92	35774	149.1	0
92	35774	149.2	0
92	35774	149.3	0
92	35774	149.4	0
92	35774	149.5	0
92	35774	149.6	0
92	35774	149.7	0
92	35774	149.8	0
92	35774	149.9	0
92	35774	150	0
92	35774	150.1	0
92	35774	150.2	0
92	35774	150.3	0
92	35774	150.4	0
92	35774	150.5	0
92	35774	150.6	0
92	35774	150.7	0
92	35774	150.8	0
92	35774	150.9	0
92	35774	151	0
92	35774	151.1	0
92	35774	151.2	0
92	35774	151.3	0
92	35774	151.4	0
92	35774	151.5	0
92	35774	151.6	0
92	35774	151.7	0
92	35774	151.8	0
92	35774	151.9	0
92	35774	152	0
92	35774	152.1	0
92	35774	152.2	0
92	35774	152.3	0
92	35774	152.4	0
92	35774	152.5	0
92	35774	152.6	0
92	35774	152.7	0
92	35774	152.8	0
92	35774	152.9	0
92	35774	153	0
92	35774	153.1	0
92	35774	153.2	0
92	35774	153.3	0
92	35774	153.4	0
92	35774	153.5	0
92	35774	153.6	0
92	35774	153.7	0
92	35774	153.8	0
92	35774	153.9	0
92	35774	154	0
92	35774	154.1	0
92	35774	154.2	0
92	35774	154.3	0
92	35774	154.4	0
92	35774	154.5	0
92	35774	154.6	0
92	35774	154.7	0
92	35774	154.8	0
92	35774	154.9	0
92	35774	155	0
92	35774	155.1	0
92	35774	155.2	0
92	35774	155.3	0
92	35774	155.4	0
92	35774	155.5	0
92	35774	155.6	0
92	35774	155.7	0
92	35774	155.8	0
92	35774	155.9	0
92	35774	156	0
92	35774	156.1	0
92	35774	156.2	0
92	35774	156.3	0
92	35774	156.4	0
92	35774	156.5	0
92	35774	156.6	0
92	35774	156.7	0
92	35774	156.8	0
92	35774	156.9	0
92	35774	157	0
92	35774	157.1	0
92	35774	157.2	0
92	35774	157.3	0
92	35774	157.4	0
92	35774	157.5	0
92	35774	157.6	0
92	35774	157.7	0
92	35774	157.8	0
92	35774	157.9	0
92	35774	158	0
92	35774	158.1	0
92	35774	158.2	0
92	35774	158.3	0
92	35774	158.4	0
92	35774	158.5	0
92	35774	158.6	0
92	35774	158.7	0
92	35774	158.8	0
92	35774	158.9	0
92	35774	159	0
92	35774	159.1	0
92	35774	159.2	0
92	35774	159.3	0
92	35774	159.4	0
92	35774	159.5	0
92	35774	159.6	0
92	35774	159.7	0
92	35774	159.8	0
92	35774	159.9	0
92	35774	160	0
92	35774	160.1	0
92	35774	160.2	0
92	35774	160.3	0
92	35774	160.4	0
92	35774	160.5	0
92	35774	160.6	0
92	35774	160.7	0
92	35774	160.8	0
92	35774	160.9	0
92	35774	161	0
92	35774	161.1	0
92	35774	161.2	0
92	35774	161.3	0
92	35774	161.4	0
92	35774	161.5	0
92	35774	161.6	0
92	35774	161.7	0
92	35774	161.8	0
92	35774	161.9	0
92	35774	162	0
92	35774	162.1	0
92	35774	162.2	0
92	35774	162.3	0
92	35774	162.4	0
92	35774	162.5	0
92	35774	162.6	0
92	35774	162.7	0
92	35774	162.8	0
92	35774	162.9	0
92	35774	163	0
92	35774	163.1	0
92	35774	163.2	0
92	35774	163.3	0
92	35774	163.4	0
92	35774	163.5	0
92	35774	163.6	0
92	35774	163.7	0
92	35774	163.8	0
92	35774	163.9	0
92	35774	164	0
92	35774	164.1	0
92	35774	164.2	0
92	35774	164.3	0
92	35774	164.4	0
92	35774	164.5	0
92	35774	164.6	0
92	35774	164.7	0
92	35774	164.8	0
92	35774	164.9	0
92	35774	165	0
92	35774	165.1	0
92	35774	165.2	0
92	35774	165.3	0
92	35774	165.4	0
92	35774	165.5	0
92	35774	165.6	0
92	35774	165.7	0
92	35774	165.8	0
92	35774	165.9	0
92	35774	166	0
92	35774	166.1	0
92	35774	166.2	0
92	35774	166.3	0
92	35774	166.4	0
92	35774	166.5	0
92	35774	166.6	0
92	35774	166.7	0
92	35774	166.8	0
92	35774	166.9	0
92	35774	167	0
92	35774	167.1	0
92	35774	167.2	0
92	35774	167.3	0
92	35774	167.4	0
92	35774	167.5	0
92	35774	167.6	0
92	35774	167.7	0
92	35774	167.8	0
92	35774	167.9	0
92	35774	168	0
92	35774	168.1	0
92	35774	168.2	0
92	35774	168.3	0
92	35774	168.4	0
92	35774	168.5	0
92	35774	168.6	0
92	35774	168.7	0
92	35774	168.8	0
92	35774	168.9	0
92	35774	169	0
92	35774	169.1	0
92	35774	169.2	0
92	35774	169.3	0
92	35774	169.4	0
92	35774	169.5	0
92	35774	169.6	0
92	35774	169.7	0
92	35774	169.8	0
92	35774	169.9	0
92	35774	170	0
92	35774	170.1	0
92	35774	170.2	0
92	35774	170.3	0
92	35774	170.4	0
92	35774	170.5	0
92	35774	170.6	0
92	35774	170.7	0
92	35774	170.8	0
92	35774	170.9	0
92	35774	171	0
92	35774	171.1	0
92	35774	171.2	0
92	35774	171.3	0
92	35774	171.4	0
92	35774	171.5	0
92	35774	171.6	0
92	35774	171.7	0
92	35774	171.8	0
92	35774	171.9	0
92	35774	172	0
92	35774	172.1	0
92	35774	172.2	0
92	35774	172.3	0
92	35774	172.4	0
92	35774	172.5	0
92	35774	172.6	0
92	35774	172.7	0
92	35774	172.8	0
92	35774	172.9	0
92	35774	173	0
92	35774	173.1	0
92	35774	173.2	0
92	35774	173.3	0
92	35774	173.4	0
92	35774	173.5	0
92	35774	173.6	0
92	35774	173.7	0
92	35774	173.8	0
92	35774	173.9	0
92	35774	174	0
92	35774	174.1	0
92	35774	174.2	0
92	35774	174.3	0
92	35774	174.4	0
92	35774	174.5	0
92	35774	174.6	0
92	35774	174.7	0
92	35774	174.8	0
92	35774	174.9	0
92	35774	175	0
92	35774	175.1	0
92	35774	175.2	0
92	35774	175.3	0
92	35774	175.4	0
92	35774	175.5	0
92	35774	175.6	0
92	35774	175.7	0
92	35774	175.8	0
92	35774	175.9	0
92	35774	176	0
92	35774	176.1	0
92	35774	176.2	0
92	35774	176.3	0
92	35774	176.4	0
92	35774	176.5	0
92	35774	176.6	0
92	35774	176.7	0
92	35774	176.8	0
92	35774	176.9	0
92	35774	177	0
92	35774	177.1	0
92	35774	177.2	0
92	35774	177.3	0
92	35774	177.4	0
92	35774	177.5	0
92	35774	177.6	0
92	35774	177.7	0
92	35774	177.8	0
92	35774	177.9	0
92	35774	178	0
92	35774	178.1	0
92	35774	178.2	0
92	35774	178.3	0
92	35774	178.4	0
92	35774	178.5	0
92	35774	178.6	0
92	35774	178.7	0
92	35774	178.8	0
92	35774	178.9	0
92	35774	179	0
92	35774	179.1	0
92	35774	179.2	0
92	35774	179.3	0
92	35774	179.4	0
92	35774	179.5	0
92	35774	179.6	0
92	35774	179.7	0
92	35774	179.8	0
92	35774	179.9	0
92	35774	180	0
92	35774	180.1	0
92	35774	180.2	0
92	35774	180.3	0
92	35774	180.4	0
92	35774	180.5	0
92	35774	180.6	0
92	35774	180.7	0
92	35774	180.8	0
92	35774	180.9	0
92	35774	181	0
92	35774	181.1	0
92	35774	181.2	0
92	35774	181.3	0
92	35774	181.4	0
92	35774	181.5	0
92	35774	181.6	0
92	35774	181.7	0
92	35774	181.8	0
92	35774	181.9	0
92	35774	182	0
92	35774	182.1	0
92	35774	182.2	0
92	35774	182.3	0
92	35774	182.4	0
92	35774	182.5	0
92	35774	182.6	0
92	35774	182.7	0
92	35774	182.8	0
92	35774	182.9	0
92	35774	183	0
92	35774	183.1	0
92	35774	183.2	0
92	35774	183.3	0
92	35774	183.4	0
92	35774	183.5	0
92	35774	183.6	0
92	35774	183.7	0
92	35774	183.8	0
92	35774	183.9	0
92	35774	184	0
92	35774	184.1	0
92	35774	184.2	0
92	35774	184.3	0
92	35774	184.4	0
92	35774	184.5	0
92	35774	184.6	0
92	35774	184.7	0
92	35774	184.8	0
92	35774	184.9	0
92	35774	185	0
92	35774	185.1	0
92	35774	185.2	0
92	35774	185.3	0
92	35774	185.4	0
92	35774	185.5	0
92	35774	185.6	0
92	35774	185.7	0
92	35774	185.8	0
92	35774	185.9	0
92	35774	186	0
92	35774	186.1	0
92	35774	186.2	0
92	35774	186.3	0
92	35774	186.4	0
92	35774	186.5	0
92	35774	186.6	0
92	35774	186.7	0
92	35774	186.8	0
92	35774	186.9	0
92	35774	187	0
92	35774	187.1	0
92	35774	187.2	0
92	35774	187.3	0
92	35774	187.4	0
92	35774	187.5	0
92	35774	187.6	0
92	35774	187.7	0
92	35774	187.8	0
92	35774	187.9	0
92	35774	188	0
92	35774	188.1	0
92	35774	188.2	0
92	35774	188.3	0
92	35774	188.4	0
92	35774	188.5	0
92	35774	188.6	0
92	35774	188.7	0
92	35774	188.8	0
92	35774	188.9	0
92	35774	189	0
92	35774	189.1	0
92	35774	189.2	0
92	35774	189.3	0
92	35774	189.4	0
92	35774	189.5	0
92	35774	189.6	0
92	35774	189.7	0
92	35774	189.8	0
92	35774	189.9	0
92	35774	190	0
92	35774	190.1	0
92	35774	190.2	0
92	35774	190.3	0
92	35774	190.4	0
92	35774	190.5	0
92	35774	190.6	0
92	35774	190.7	0
92	35774	190.8	0
92	35774	190.9	0
92	35774	191	0
92	35774	191.1	0
92	35774	191.2	0
92	35774	191.3	0
92	35774	191.4	0
92	35774	191.5	0
92	35774	191.6	0
92	35774	191.7	0
92	35774	191.8	0
92	35774	191.9	0
92	35774	192	0
92	35774	192.1	0
92	35774	192.2	0
92	35774	192.3	0
92	35774	192.4	0
92	35774	192.5	0
92	35774	192.6	0
92	35774	192.7	0
92	35774	192.8	0
92	35774	192.9	0
92	35774	193	0
92	35774	193.1	0
92	35774	193.2	0
92	35774	193.3	0
92	35774	193.4	0
92	35774	193.5	0
92	35774	193.6	0
92	35774	193.7	0
92	35774	193.8	0
92	35774	193.9	0
92	35774	194	0
92	35774	194.1	0
92	35774	194.2	0
92	35774	194.3	0
92	35774	194.4	0
92	35774	194.5	0
92	35774	194.6	0
92	35774	194.7	0
92	35774	194.8	0
92	35774	194.9	0
92	35774	195	0
92	35774	195.1	0
92	35774	195.2	0
92	35774	195.3	0
92	35774	195.4	0
92	35774	195.5	0
92	35774	195.6	0
92	35774	195.7	0
92	35774	195.8	0
92	35774	195.9	0
92	35774	196	0
92	35774	196.1	0
92	35774	196.2	0
92	35774	196.3	0
92	35774	196.4	0
92	35774	196.5	0
92	35774	196.6	0
92	35774	196.7	0
92	35774	196.8	0
92	35774	196.9	0
92	35774	197	0
92	35774	197.1	0
92	35774	197.2	0
92	35774	197.3	0
92	35774	197.4	0
92	35774	197.5	0
92	35774	197.6	0
92	35774	197.7	0
92	35774	197.8	0
92	35774	197.9	0
92	35774	198	0
92	35774	198.1	0
92	35774	198.2	0
92	35774	198.3	0
92	35774	198.4	0
92	35774	198.5	0
92	35774	198.6	0
92	35774	198.7	0
92	35774	198.8	0
92	35774	198.9	0
92	35774	199	0
92	35774	199.1	0
92	35774	199.2	0
92	35774	199.3	0
92	35774	199.4	0
92	35774	199.5	0
92	35774	199.6	0
92	35774	199.7	0
92	35774	199.8	0
92	35774	199.9	0
92	35774	200	0
92	35774	200.1	0
92	35774	200.2	0
92	35774	200.3	0
92	35774	200.4	0
92	35774	200.5	0
92	35774	200.6	0
92	35774	200.7	0
92	35774	200.8	0
92	35774	200.9	0
92	35774	201	0
92	35774	201.1	0
92	35774	201.2	0
92	35774	201.3	0
92	35774	201.4	0
92	35774	201.5	0
92	35774	201.6	0
92	35774	201.7	0
92	35774	201.8	0
92	35774	201.9	0
92	35774	202	0
92	35774	202.1	0
92	35774	202.2	0
92	35774	202.3	0
92	35774	202.4	0
92	35774	202.5	0
92	35774	202.6	0
92	35774	202.7	0
92	35774	202.8	0
92	35774	202.9	0
92	35774	203	0
92	35774	203.1	0
92	35774	203.2	0
92	35774	203.3	0
92	35774	203.4	0
92	35774	203.5	0
92	35774	203.6	0
92	35774	203.7	0
92	35774	203.8	0
92	35774	203.9	0
92	35774	204	0
92	35774	204.1	0
92	35774	204.2	0
92	35774	204.3	0
92	35774	204.4	0
92	35774	204.5	0
92	35774	204.6	0
92	35774	204.7	0
92	35774	204.8	0
92	35774	204.9	0
92	35774	205	0
92	35774	205.1	0
92	35774	205.2	0
92	35774	205.3	0
92	35774	205.4	0
92	35774	205.5	0
92	35774	205.6	0
92	35774	205.7	0
92	35774	205.8	0
92	35774	205.9	0
92	35774	206	0
92	35774	206.1	0
92	35774	206.2	0
92	35774	206.3	0
92	35774	206.4	0
92	35774	206.5	0
92	35774	206.6	0
92	35774	206.7	0
92	35774	206.8	0
92	35774	206.9	0
92	35774	207	0
92	35774	207.1	0
92	35774	207.2	0
92	35774	207.3	0
92	35774	207.4	0
92	35774	207.5	0
92	35774	207.6	0
92	35774	207.7	0
92	35774	207.8	0
92	35774	207.9	0
92	35774	208	0
92	35774	208.1	0
92	35774	208.2	0
92	35774	208.3	0
92	35774	208.4	0
92	35774	208.5	0
92	35774	208.6	0
92	35774	208.7	0
92	35774	208.8	0
92	35774	208.9	0
92	35774	209	0
92	35774	209.1	0
92	35774	209.2	0
92	35774	209.3	0
92	35774	209.4	0
92	35774	209.5	0
92	35774	209.6	0
92	35774	209.7	0
92	35774	209.8	0
92	35774	209.9	0
92	35774	210	0
92	35774	210.1	0
92	35774	210.2	0
92	35774	210.3	0
92	35774	210.4	0
92	35774	210.5	0
92	35774	210.6	0
92	35774	210.7	0
92	35774	210.8	0
92	35774	210.9	0
92	35774	211	0
92	35774	211.1	0
92	35774	211.2	0
92	35774	211.3	0
92	35774	211.4	0
92	35774	211.5	0
92	35774	211.6	0
92	35774	211.7	0
92	35774	211.8	0
92	35774	211.9	0
92	35774	212	0
92	35774	212.1	0
92	35774	212.2	0
92	35774	212.3	0
92	35774	212.4	0
92	35774	212.5	0
92	35774	212.6	0
92	35774	212.7	0
92	35774	212.8	0
92	35774	212.9	0
92	35774	213	0
92	35774	213.1	0
92	35774	213.2	0
92	35774	213.3	0
92	35774	213.4	0
92	35774	213.5	0
92	35774	213.6	0
92	35774	213.7	0
92	35774	213.8	0
92	35774	213.9	0
92	35774	214	0
92	35774	214.1	0
92	35774	214.2	0
92	35774	214.3	0
92	35774	214.4	0
92	35774	214.5	0
92	35774	214.6	0
92	35774	214.7	0
92	35774	214.8	0
92	35774	214.9	0
92	35774	215	0
92	35774	215.1	0
92	35774	215.2	0
92	35774	215.3	0
92	35774	215.4	0
92	35774	215.5	0
92	35774	215.6	0
92	35774	215.7	0
92	35774	215.8	0
92	35774	215.9	0
92	35774	216	0
92	35774	216.1	0
92	35774	216.2	0
92	35774	216.3	0
92	35774	216.4	0
92	35774	216.5	0
92	35774	216.6	0
92	35774	216.7	0
92	35774	216.8	0
92	35774	216.9	0
92	35774	217	0
92	35774	217.1	0
92	35774	217.2	0
92	35774	217.3	0
92	35774	217.4	0
92	35774	217.5	0
92	35774	217.6	0
92	35774	217.7	0
92	35774	217.8	0
92	35774	217.9	0
92	35774	218	0
92	35774	218.1	0
92	35774	218.2	0
92	35774	218.3	0
92	35774	218.4	0
92	35774	218.5	0
92	35774	218.6	0
92	35774	218.7	0
92	35774	218.8	0
92	35774	218.9	0
92	35774	219	0
92	35774	219.1	0
92	35774	219.2	0
92	35774	219.3	0
92	35774	219.4	0
92	35774	219.5	0
92	35774	219.6	0
92	35774	219.7	0
92	35774	219.8	0
92	35774	219.9	0
92	35774	220	0
92	35774	220.1	0
92	35774	220.2	0
92	35774	220.3	0
92	35774	220.4	0
92	35774	220.5	0
92	35774	220.6	0
92	35774	220.7	0
92	35774	220.8	0
92	35774	220.9	0
92	35774	221	0
92	35774	221.1	0
92	35774	221.2	0
92	35774	221.3	0
92	35774	221.4	0
92	35774	221.5	0
92	35774	221.6	0
92	35774	221.7	0
92	35774	221.8	0
92	35774	221.9	0
92	35774	222	0
92	35774	222.1	0
92	35774	222.2	0
92	35774	222.3	0
92	35774	222.4	0
92	35774	222.5	0
92	35774	222.6	0
92	35774	222.7	0
92	35774	222.8	0
92	35774	222.9	0
92	35774	223	0
92	35774	223.1	0
92	35774	223.2	0
92	35774	223.3	0
92	35774	223.4	0
92	35774	223.5	0
92	35774	223.6	0
92	35774	223.7	0
92	35774	223.8	0
92	35774	223.9	0
92	35774	224	0
92	35774	224.1	0
92	35774	224.2	0
92	35774	224.3	0
92	35774	224.4	0
92	35774	224.5	0
92	35774	224.6	0
92	35774	224.7	0
92	35774	224.8	0
92	35774	224.9	0
92	35774	225	0
92	35835	225.1	800
92	35835	225.2	0
93	17853	125.341661649397	2.090656902245
93	17902	125.343256475651	1.092251728499
93	18061	125.356576952415	0.105572205263
93	18116	125.368434600938	0.084831020786
93	18256	125.381729895343	0.046269485958
93	18406	125.389237184272	0.002302877759
93	18452	125.389794006367	0.00167287759
93	35774	225.018862782475	0.01880839061
93	35835	225.251059136791	5.4389639e-005
94	17975	125.34892730157	74
94	18057	125.356576952415	74
94	18094	125.36814577694	74
94	18150	125.370631424825	74
94	18169	125.370780248607	74
94	18252	125.381729895343	74
94	18402	125.389237184272	74
95	17975	125.34892730157	74
95	18094	125.36814577694	74
95	18150	125.370631424825	74
95	18169	125.370780248607	74
96	17975	125.34892730157	74
96	18094	125.36814577694	74
96	18150	125.370631424825	74
96	18169	125.370780248607	74

