version 2
run Sim2drone1sensor-0-20210617-19:38:02-4824
attr configname Sim2drone1sensor
attr datetime 20210617-19:38:02
attr experiment Sim2drone1sensor
attr inifile mobilityDrones-omnetpp.ini
attr iterationvars ""
attr iterationvarsf ""
attr measurement ""
attr network mobilityDrones
attr processid 4824
attr repetition 0
attr replication #0
attr resultdir results
attr runnumber 0
attr seedset 0
param *.numUAVs 2
param *.drones[0].app[0].destAddresses "\"drones[1]\""
param *.drones[1].app[0].destAddresses "\"drones[0]\""
param *.drones[0].mobility.waypointFile "\"paths/testPath.csv\""
param *.drones[1].mobility.waypointFile "\"paths/testPath2.csv\""
param *.visualizer.osgVisualizer.typename "\"IntegratedOsgVisualizer\""
param *.visualizer.osgVisualizer.sceneVisualizer.typename "\"SceneOsgEarthVisualizer\""
param *.visualizer.osgVisualizer.sceneVisualizer.mapFile "\"map.earth\""
param *.visualizer.osgVisualizer.sceneVisualizer.sceneImageSize 10000m
param *.visualizer.osgVisualizer.sceneVisualizer.axisLength 500m
param *.visualizer.osgVisualizer.sceneVisualizer.sceneMinX -200m
param *.visualizer.osgVisualizer.sceneVisualizer.sceneMinY -200m
param *.visualizer.osgVisualizer.sceneVisualizer.sceneMinZ 0m
param *.visualizer.osgVisualizer.sceneVisualizer.sceneMaxX 5000m
param *.visualizer.osgVisualizer.sceneVisualizer.sceneMaxY 5000m
param *.visualizer.osgVisualizer.sceneVisualizer.sceneMaxZ 5000m
param *.visualizer.osgVisualizer.networkNodeVisualizer.displayModuleName true
param *.visualizer.*.mobilityVisualizer.displayMobility true
param *.visualizer.*.mobilityVisualizer.displayPositions true
param *.visualizer.*.mobilityVisualizer.displayOrientations true
param *.visualizer.*.mobilityVisualizer.displayVelocities true
param *.visualizer.*.mobilityVisualizer.displayMovementTrails true
param *.visualizer.*.mobilityVisualizer.animationSpeed 10
param *.visualizer.mediumVisualizer.displaySignals true
param **.constraintAreaMinX -500m
param **.constraintAreaMinY -500m
param **.constraintAreaMinZ -500m
param **.constraintAreaMaxX 5000m
param **.constraintAreaMaxY 5000m
param **.constraintAreaMaxZ 5000m
param *.drones*.wlan[0].radio.displayCommunicationRange true
param *.coordinateSystem.sceneLongitude -47.926634deg
param *.coordinateSystem.sceneLatitude -15.840075deg
param *.coordinateSystem.sceneHeading 90deg
param *.environment.ground.typename "\"FlatGround\""
param *.drones[*].osgModel "\"3d/drone.ive.100.scale.0,0,90.rot\""
param *.drones[*].mobility.coordinateSystemModule "\"coordinateSystem\""
param *.drones[*].mobility.waypointFile "\"paths/gradys-vai-e-volta-descendo-5s-v1.txt\""
param *.drones[*].mobility.waypointProximity 1m
param **.mobility.initFromDisplayString false
param *.drones[*].mobility.speed uniform(10mps,20mps)
param *.drones[*].numApps 2
param *.drones[*].app[0].typename "\"UdpBasicAppMobileNode\""
param *.drones[*].app[0].destPort 1000
param *.drones[*].app[0].sendInterval 5s
param *.drones[*].app[0].startTime exponential(1s)
param *.drones[*].app[0].stopTime -1s
param *.drones[*].app[0].messageLength 1454Byte
param *.drones[*].app[0].packetName "\"UAV-DEFAULT-PAYLOAD\""
param *.drones[*].app[1].typename "\"UdpSinkMobileNode\""
param *.drones[*].app[1].localPort 1000
param *.sensor.mobility.typename "\"StationaryMobility\""
param *.sensor*.mobility.coordinateSystemModule "\"\""

vector 0 mobilityDrones.drones[0].wlan[0].radio radioMode:vector ETV
attr interpolationmode sample-hold
attr source radioModeChanged
attr title "Radio mode, vector"
vector 1 mobilityDrones.drones[0].wlan[0].radio radioChannel:vector ETV
attr interpolationmode sample-hold
attr source radioChannelChanged
attr title "Radio channel, vector"
vector 2 mobilityDrones.drones[1].wlan[0].radio radioMode:vector ETV
attr interpolationmode sample-hold
attr source radioModeChanged
attr title "Radio mode, vector"
vector 3 mobilityDrones.drones[1].wlan[0].radio radioChannel:vector ETV
attr interpolationmode sample-hold
attr source radioChannelChanged
attr title "Radio channel, vector"
vector 4 mobilityDrones.sensor1.wlan[0].radio radioMode:vector ETV
attr interpolationmode sample-hold
attr source radioModeChanged
attr title "Radio mode, vector"
vector 5 mobilityDrones.sensor1.wlan[0].radio radioChannel:vector ETV
attr interpolationmode sample-hold
attr source radioChannelChanged
attr title "Radio channel, vector"
vector 6 mobilityDrones.sensor2.wlan[0].radio radioMode:vector ETV
attr interpolationmode sample-hold
attr source radioModeChanged
attr title "Radio mode, vector"
vector 7 mobilityDrones.sensor2.wlan[0].radio radioChannel:vector ETV
attr interpolationmode sample-hold
attr source radioChannelChanged
attr title "Radio channel, vector"
vector 8 mobilityDrones.sensor3.wlan[0].radio radioMode:vector ETV
attr interpolationmode sample-hold
attr source radioModeChanged
attr title "Radio mode, vector"
vector 9 mobilityDrones.sensor3.wlan[0].radio radioChannel:vector ETV
attr interpolationmode sample-hold
attr source radioChannelChanged
attr title "Radio channel, vector"
vector 10 mobilityDrones.drones[0].wlan[0].radio receptionState:vector ETV
attr interpolationmode sample-hold
attr source receptionStateChanged
attr title "Radio reception state, vector"
vector 11 mobilityDrones.drones[1].wlan[0].radio receptionState:vector ETV
attr interpolationmode sample-hold
attr source receptionStateChanged
attr title "Radio reception state, vector"
vector 12 mobilityDrones.sensor1.wlan[0].radio receptionState:vector ETV
attr interpolationmode sample-hold
attr source receptionStateChanged
attr title "Radio reception state, vector"
vector 13 mobilityDrones.sensor2.wlan[0].radio receptionState:vector ETV
attr interpolationmode sample-hold
attr source receptionStateChanged
attr title "Radio reception state, vector"
vector 14 mobilityDrones.sensor3.wlan[0].radio receptionState:vector ETV
attr interpolationmode sample-hold
attr source receptionStateChanged
attr title "Radio reception state, vector"
vector 15 mobilityDrones.drones[0].wlan[0].mac.dcf.recoveryProcedure contentionWindowChanged:vector ETV
attr interpolationmode sample-hold
attr title "contention window, vector"
vector 16 mobilityDrones.drones[1].wlan[0].mac.dcf.recoveryProcedure contentionWindowChanged:vector ETV
attr interpolationmode sample-hold
attr title "contention window, vector"
vector 17 mobilityDrones.sensor1.wlan[0].mac.dcf.recoveryProcedure contentionWindowChanged:vector ETV
attr interpolationmode sample-hold
attr title "contention window, vector"
vector 18 mobilityDrones.sensor2.wlan[0].mac.dcf.recoveryProcedure contentionWindowChanged:vector ETV
attr interpolationmode sample-hold
attr title "contention window, vector"
vector 19 mobilityDrones.sensor3.wlan[0].mac.dcf.recoveryProcedure contentionWindowChanged:vector ETV
attr interpolationmode sample-hold
attr title "contention window, vector"
vector 20 mobilityDrones.drones[0].app[0] packetSent:vector(packetBytes) ETV
attr interpolationmode none
attr source packetSent
attr title "packets sent, vector(packetBytes)"
vector 21 mobilityDrones.drones[0].udp packetSent:vector(packetBytes) ETV
attr interpolationmode none
attr source packetSent
attr title "packets sent, vector(packetBytes)"
vector 22 mobilityDrones.drones[0].ipv4.arp arpRequestSent:vector(packetBytes) ETV
attr source arpRequestSent
attr title "ARP request sent, vector(packetBytes)"
vector 23 mobilityDrones.drones[0].wlan[0].mac packetReceivedFromUpper:vector(packetBytes) ETV
attr interpolationmode none
attr title "packets received from upper layer, vector(packetBytes)"
vector 24 mobilityDrones.drones[0].wlan[0].mac.dcf.channelAccess.pendingQueue packetPushed:vector(packetBytes) ETV
attr interpolationmode none
attr title "packet pushed, vector(packetBytes)"
vector 25 mobilityDrones.drones[0].wlan[0].mac.dcf.channelAccess.pendingQueue queueLength:vector ETV
attr interpolationmode sample-hold
attr source "count(packetPushed) - count(packetPopped) - count(packetRemoved) - count(packetDropped)"
attr title "queue length, vector"
vector 26 mobilityDrones.drones[0].wlan[0].mac.dcf.channelAccess.contention backoffPeriodGenerated:vector ETV
attr interpolationmode none
attr title "backoff periods, vector"
vector 27 mobilityDrones.drones[0].wlan[0].mac.dcf.channelAccess.contention backoffActive:vector ETV
attr interpolationmode sample-hold
attr source count(backoffStarted)-count(backoffStopped)
attr title "backoff active, vector"
vector 28 mobilityDrones.drones[0].wlan[0].mac.dcf.channelAccess.pendingQueue packetPopped:vector(packetBytes) ETV
attr interpolationmode none
attr title "packet popped, vector(packetBytes)"
vector 29 mobilityDrones.drones[0].wlan[0].mac.dcf.channelAccess.pendingQueue queueingTime:vector ETV
attr interpolationmode none
attr source queueingTime(packetPopped)
attr title "queueing times, vector"
attr unit s
vector 30 mobilityDrones.drones[0].wlan[0].mac.dcf.channelAccess.inProgressFrames queueLength:vector ETV
attr interpolationmode sample-hold
attr source "count(packetEnqueued) - count(packetDequeued)"
attr title "queue length, vector"
vector 31 mobilityDrones.drones[0].wlan[0].mac.dcf datarateSelected:vector ETV
attr interpolationmode none
attr title "datarates selected, vector"
vector 32 mobilityDrones.drones[0].wlan[0].mac packetSentToLower:vector(packetBytes) ETV
attr interpolationmode none
attr title "packets sent to lower layer, vector(packetBytes)"
vector 33 mobilityDrones.drones[0].wlan[0].mac.dcf frameSequenceActive:vector ETV
attr interpolationmode sample-hold
attr source count(frameSequenceStarted)-count(frameSequenceFinished)
attr title "frame sequence active, vector"
vector 34 mobilityDrones.drones[0].wlan[0].radio transmissionState:vector ETV
attr interpolationmode sample-hold
attr source transmissionStateChanged
attr title "Radio transmission state, vector"
vector 35 mobilityDrones.drones[0].wlan[0].mac.dcf packetSentToPeer:vector(packetBytes) ETV
attr interpolationmode none
attr title "packets sent, vector(packetBytes)"
vector 36 mobilityDrones.drones[0].wlan[0].mac.dcf packetSentToPeerMulticast:vector(packetBytes) ETV
attr interpolationmode none
attr source ieee80211Multicast(packetSentToPeer)
attr title "packets sent: multicast, vector(packetBytes)"
vector 37 mobilityDrones.drones[0].wlan[0].mac.dcf packetSentToPeerBroadcast:vector(packetBytes) ETV
attr interpolationmode none
attr source ieee80211Broadcast(packetSentToPeer)
attr title "packets sent: broadcast , vector(packetBytes)"
vector 38 mobilityDrones.drones[0].wlan[0].mac.dcf packetSentToPeerWithoutRetry:vector(packetBytes) ETV
attr interpolationmode none
attr source ieee80211NotRetry(packetSentToPeer)
attr title "packets sent: without retry, vector(packetBytes)"
vector 39 mobilityDrones.drones[0].wlan[0].mac.dcf.channelAccess.inProgressFrames queueingTime:vector ETV
attr interpolationmode none
attr source queueingTime(packetDequeued)
attr title "queueing times, vector"
vector 40 mobilityDrones.drones[1].app[0] packetSent:vector(packetBytes) ETV
attr interpolationmode none
attr source packetSent
attr title "packets sent, vector(packetBytes)"
vector 41 mobilityDrones.drones[1].udp packetSent:vector(packetBytes) ETV
attr interpolationmode none
attr source packetSent
attr title "packets sent, vector(packetBytes)"
vector 42 mobilityDrones.drones[1].ipv4.arp arpRequestSent:vector(packetBytes) ETV
attr source arpRequestSent
attr title "ARP request sent, vector(packetBytes)"
vector 43 mobilityDrones.drones[1].wlan[0].mac packetReceivedFromUpper:vector(packetBytes) ETV
attr interpolationmode none
attr title "packets received from upper layer, vector(packetBytes)"
vector 44 mobilityDrones.drones[1].wlan[0].mac.dcf.channelAccess.pendingQueue packetPushed:vector(packetBytes) ETV
attr interpolationmode none
attr title "packet pushed, vector(packetBytes)"
vector 45 mobilityDrones.drones[1].wlan[0].mac.dcf.channelAccess.pendingQueue queueLength:vector ETV
attr interpolationmode sample-hold
attr source "count(packetPushed) - count(packetPopped) - count(packetRemoved) - count(packetDropped)"
attr title "queue length, vector"
vector 46 mobilityDrones.drones[1].wlan[0].mac.dcf.channelAccess.contention backoffPeriodGenerated:vector ETV
attr interpolationmode none
attr title "backoff periods, vector"
vector 47 mobilityDrones.drones[1].wlan[0].mac.dcf.channelAccess.contention backoffActive:vector ETV
attr interpolationmode sample-hold
attr source count(backoffStarted)-count(backoffStopped)
attr title "backoff active, vector"
vector 48 mobilityDrones.drones[1].wlan[0].mac.dcf.channelAccess.pendingQueue packetPopped:vector(packetBytes) ETV
attr interpolationmode none
attr title "packet popped, vector(packetBytes)"
vector 49 mobilityDrones.drones[1].wlan[0].mac.dcf.channelAccess.pendingQueue queueingTime:vector ETV
attr interpolationmode none
attr source queueingTime(packetPopped)
attr title "queueing times, vector"
attr unit s
vector 50 mobilityDrones.drones[1].wlan[0].mac.dcf.channelAccess.inProgressFrames queueLength:vector ETV
attr interpolationmode sample-hold
attr source "count(packetEnqueued) - count(packetDequeued)"
attr title "queue length, vector"
vector 51 mobilityDrones.drones[1].wlan[0].mac.dcf datarateSelected:vector ETV
attr interpolationmode none
attr title "datarates selected, vector"
vector 52 mobilityDrones.drones[1].wlan[0].mac packetSentToLower:vector(packetBytes) ETV
attr interpolationmode none
attr title "packets sent to lower layer, vector(packetBytes)"
vector 53 mobilityDrones.drones[1].wlan[0].mac.dcf frameSequenceActive:vector ETV
attr interpolationmode sample-hold
attr source count(frameSequenceStarted)-count(frameSequenceFinished)
attr title "frame sequence active, vector"
vector 54 mobilityDrones.drones[1].wlan[0].radio transmissionState:vector ETV
attr interpolationmode sample-hold
attr source transmissionStateChanged
attr title "Radio transmission state, vector"
vector 55 mobilityDrones.drones[1].wlan[0].mac.dcf packetSentToPeer:vector(packetBytes) ETV
attr interpolationmode none
attr title "packets sent, vector(packetBytes)"
vector 56 mobilityDrones.drones[1].wlan[0].mac.dcf packetSentToPeerMulticast:vector(packetBytes) ETV
attr interpolationmode none
attr source ieee80211Multicast(packetSentToPeer)
attr title "packets sent: multicast, vector(packetBytes)"
vector 57 mobilityDrones.drones[1].wlan[0].mac.dcf packetSentToPeerBroadcast:vector(packetBytes) ETV
attr interpolationmode none
attr source ieee80211Broadcast(packetSentToPeer)
attr title "packets sent: broadcast , vector(packetBytes)"
vector 58 mobilityDrones.drones[1].wlan[0].mac.dcf packetSentToPeerWithoutRetry:vector(packetBytes) ETV
attr interpolationmode none
attr source ieee80211NotRetry(packetSentToPeer)
attr title "packets sent: without retry, vector(packetBytes)"
vector 59 mobilityDrones.drones[1].wlan[0].mac.dcf.channelAccess.inProgressFrames queueingTime:vector ETV
attr interpolationmode none
attr source queueingTime(packetDequeued)
attr title "queueing times, vector"
vector 60 mobilityDrones.drones[0].ipv4.ip packetDropAddressResolutionFailed:vector(packetBytes) ETV
attr interpolationmode none
attr source packetDropReasonIsAddressResolutionFailed(packetDropped)
attr title "packet drop: address resolution failed, vector(packetBytes)"
vector 61 mobilityDrones.drones[1].ipv4.ip packetDropAddressResolutionFailed:vector(packetBytes) ETV
attr interpolationmode none
attr source packetDropReasonIsAddressResolutionFailed(packetDropped)
attr title "packet drop: address resolution failed, vector(packetBytes)"
vector 62 mobilityDrones.drones[1].wlan[0].mac packetReceivedFromLower:vector(packetBytes) ETV
attr interpolationmode none
attr title "packets received from lower layer, vector(packetBytes)"
vector 63 mobilityDrones.drones[1].wlan[0].mac.dcf packetReceivedFromPeer:vector(packetBytes) ETV
attr interpolationmode none
attr title "packets received, vector(packetBytes)"
vector 64 mobilityDrones.drones[1].wlan[0].mac.dcf packetReceivedFromPeerMulticast:vector(packetBytes) ETV
attr interpolationmode none
attr source ieee80211Multicast(packetReceivedFromPeer)
attr title "packets received: multicast, vector(packetBytes)"
vector 65 mobilityDrones.drones[1].wlan[0].mac.dcf packetReceivedFromPeerBroadcast:vector(packetBytes) ETV
attr interpolationmode none
attr source ieee80211Broadcast(packetReceivedFromPeer)
attr title "packets received: broadcast, vector(packetBytes)"
vector 66 mobilityDrones.drones[1].wlan[0].mac.dcf packetReceivedFromPeerWithoutRetry:vector(packetBytes) ETV
attr interpolationmode none
attr source ieee80211NotRetry(packetReceivedFromPeer)
attr title "packets received: without retry, vector(packetBytes)"
vector 67 mobilityDrones.drones[1].wlan[0].mac packetSentToUpper:vector(packetBytes) ETV
attr interpolationmode none
attr title "packets sent to upper layer, vector(packetBytes)"
vector 68 mobilityDrones.drones[1].ipv4.arp arpReplySent:vector(packetBytes) ETV
attr source arpReplySent
attr title "ARP replies sent, vector(packetBytes)"
vector 69 mobilityDrones.drones[1].wlan[0].mac.dcf packetSentToPeerUnicast:vector(packetBytes) ETV
attr interpolationmode none
attr source ieee80211Unicast(packetSentToPeer)
attr title "packets sent: unicast, vector(packetBytes)"
vector 70 mobilityDrones.drones[1].wlan[0].mac.rx nav:vector ETV
attr interpolationmode linear
attr source navChanged
attr title "network allocation vector, vector"
vector 71 mobilityDrones.drones[0].wlan[0].mac packetReceivedFromLower:vector(packetBytes) ETV
attr interpolationmode none
attr title "packets received from lower layer, vector(packetBytes)"
vector 72 mobilityDrones.drones[0].wlan[0].mac.dcf packetReceivedFromPeer:vector(packetBytes) ETV
attr interpolationmode none
attr title "packets received, vector(packetBytes)"
vector 73 mobilityDrones.drones[0].wlan[0].mac.dcf packetReceivedFromPeerUnicast:vector(packetBytes) ETV
attr interpolationmode none
attr source ieee80211Unicast(packetReceivedFromPeer)
attr title "packets received: unicast, vector(packetBytes)"
vector 74 mobilityDrones.drones[0].wlan[0].mac.dcf packetReceivedFromPeerWithoutRetry:vector(packetBytes) ETV
attr interpolationmode none
attr source ieee80211NotRetry(packetReceivedFromPeer)
attr title "packets received: without retry, vector(packetBytes)"
vector 75 mobilityDrones.drones[0].wlan[0].mac packetSentToUpper:vector(packetBytes) ETV
attr interpolationmode none
attr title "packets sent to upper layer, vector(packetBytes)"
vector 76 mobilityDrones.drones[0].wlan[0].mac.dcf packetSentToPeerUnicast:vector(packetBytes) ETV
attr interpolationmode none
attr source ieee80211Unicast(packetSentToPeer)
attr title "packets sent: unicast, vector(packetBytes)"
vector 77 mobilityDrones.drones[1].wlan[0].mac.dcf packetReceivedFromPeerUnicast:vector(packetBytes) ETV
attr interpolationmode none
attr source ieee80211Unicast(packetReceivedFromPeer)
attr title "packets received: unicast, vector(packetBytes)"
vector 78 mobilityDrones.drones[0].wlan[0].mac.rx nav:vector ETV
attr interpolationmode linear
attr source navChanged
attr title "network allocation vector, vector"
vector 79 mobilityDrones.drones[1].udp packetReceived:vector(packetBytes) ETV
attr interpolationmode none
attr source packetReceived
attr title "packets received, vector(packetBytes)"
vector 80 mobilityDrones.drones[1].udp passedUpPk:vector(count) ETV
attr interpolationmode none
attr source packetSentToUpper
attr title "packets passed up, vector(count)"
vector 81 mobilityDrones.drones[1].app[1] packetReceived:vector(packetBytes) ETV
attr interpolationmode none
attr source packetReceived
attr title "packets received, vector(packetBytes)"
vector 82 mobilityDrones.drones[1].app[1] throughput:vector ETV
attr source throughput(packetReceived)
attr title "throughput, vector"
attr unit bps
vector 83 mobilityDrones.drones[1].app[1] endToEndDelay:vector ETV
attr interpolationmode none
attr source dataAge(packetReceived)
attr title "end-to-end delay, vector"
attr unit s
vector 84 mobilityDrones.drones[1].app[1] rcvdPkSeqNo:vector ETV
attr interpolationmode none
attr source appPkSeqNo(packetReceived)
attr title "received packet sequence number, vector"
vector 85 mobilityDrones.drones[0].udp packetReceived:vector(packetBytes) ETV
attr interpolationmode none
attr source packetReceived
attr title "packets received, vector(packetBytes)"
vector 86 mobilityDrones.drones[0].udp passedUpPk:vector(count) ETV
attr interpolationmode none
attr source packetSentToUpper
attr title "packets passed up, vector(count)"
vector 87 mobilityDrones.drones[0].app[1] packetReceived:vector(packetBytes) ETV
attr interpolationmode none
attr source packetReceived
attr title "packets received, vector(packetBytes)"
vector 88 mobilityDrones.drones[0].app[1] throughput:vector ETV
attr source throughput(packetReceived)
attr title "throughput, vector"
attr unit bps
vector 89 mobilityDrones.drones[0].app[1] endToEndDelay:vector ETV
attr interpolationmode none
attr source dataAge(packetReceived)
attr title "end-to-end delay, vector"
attr unit s
vector 90 mobilityDrones.drones[0].app[1] rcvdPkSeqNo:vector ETV
attr interpolationmode none
attr source appPkSeqNo(packetReceived)
attr title "received packet sequence number, vector"
vector 91 mobilityDrones.drones[0].wlan[0].mac.dcf packetSentToPeerWithRetry:vector(packetBytes) ETV
attr interpolationmode none
attr source ieee80211Retry(packetSentToPeer)
attr title "packets sent: with retry, vector(packetBytes)"
vector 92 mobilityDrones.drones[0].wlan[0].mac.dcf packetDrop:vector(packetBytes) ETV
attr interpolationmode none
attr source packetDropped
attr title "packet drops, vector(packetBytes)"
vector 93 mobilityDrones.drones[0].wlan[0].mac.dcf packetDropRetryLimitReached:vector(packetBytes) ETV
attr interpolationmode none
attr source packetDropReasonIsRetryLimitReached(packetDropped)
attr title "packet drops: retry limit reached, vector(packetBytes)"
vector 94 mobilityDrones.drones[0].wlan[0].mac packetDrop:vector(packetBytes) ETV
attr interpolationmode none
attr source packetDropped
attr title "packet drops, vector(packetBytes)"
vector 95 mobilityDrones.drones[0].wlan[0].mac packetDropRetryLimitReached:vector(packetBytes) ETV
attr interpolationmode none
attr source packetDropReasonIsRetryLimitReached(packetDropped)
attr title "packet drops: retry limit reached, vector(packetBytes)"
vector 96 mobilityDrones.drones[1].wlan[0].mac.dcf packetSentToPeerWithRetry:vector(packetBytes) ETV
attr interpolationmode none
attr source ieee80211Retry(packetSentToPeer)
attr title "packets sent: with retry, vector(packetBytes)"
vector 97 mobilityDrones.drones[1].wlan[0].mac.dcf packetDrop:vector(packetBytes) ETV
attr interpolationmode none
attr source packetDropped
attr title "packet drops, vector(packetBytes)"
vector 98 mobilityDrones.drones[1].wlan[0].mac.dcf packetDropRetryLimitReached:vector(packetBytes) ETV
attr interpolationmode none
attr source packetDropReasonIsRetryLimitReached(packetDropped)
attr title "packet drops: retry limit reached, vector(packetBytes)"
vector 99 mobilityDrones.drones[1].wlan[0].mac packetDrop:vector(packetBytes) ETV
attr interpolationmode none
attr source packetDropped
attr title "packet drops, vector(packetBytes)"
vector 100 mobilityDrones.drones[1].wlan[0].mac packetDropRetryLimitReached:vector(packetBytes) ETV
attr interpolationmode none
attr source packetDropReasonIsRetryLimitReached(packetDropped)
attr title "packet drops: retry limit reached, vector(packetBytes)"
vector 101 mobilityDrones.drones[0].wlan[0].mac.dcf packetReceivedFromPeerMulticast:vector(packetBytes) ETV
attr interpolationmode none
attr source ieee80211Multicast(packetReceivedFromPeer)
attr title "packets received: multicast, vector(packetBytes)"
vector 102 mobilityDrones.drones[0].wlan[0].mac.dcf packetReceivedFromPeerBroadcast:vector(packetBytes) ETV
attr interpolationmode none
attr source ieee80211Broadcast(packetReceivedFromPeer)
attr title "packets received: broadcast, vector(packetBytes)"
vector 103 mobilityDrones.drones[0].ipv4.arp arpReplySent:vector(packetBytes) ETV
attr source arpReplySent
attr title "ARP replies sent, vector(packetBytes)"
0	0	0	0
0	0	0	0
0	0	0	2
0	33	0.923223131471	3
0	40	0.923273131471	2
0	92	1.923223131471	3
0	99	1.923273131471	2
0	148	2.923223131471	3
0	155	2.923273131471	2
0	248	5.923223131471	3
0	255	5.923273131471	2
0	306	6.923223131471	3
0	313	6.923273131471	2
0	362	7.923223131471	3
0	369	7.923273131471	2
0	462	10.923223131471	3
0	469	10.923273131471	2
0	496	10.923683407097	3
0	507	10.923717407097	2
0	515	10.924067407097	3
0	522	10.924597407097	2
0	540	10.924651682516	3
0	550	10.924697682516	2
0	603	10.977546559349	3
0	613	10.977580559349	2
0	637	10.977646825163	3
0	649	10.977680825163	2
0	766	15.923223131471	3
0	773	15.923753131471	2
0	782	15.924927131471	3
0	789	15.925457131471	2
0	798	15.927951131471	3
0	805	15.928481131471	2
0	814	15.929255131471	3
0	821	15.929785131471	2
0	830	15.932919131471	3
0	837	15.933449131471	2
0	848	15.936583131471	3
0	855	15.937113131471	2
0	868	15.955507131471	3
0	875	15.956037131471	2
0	884	15.956371131471	3
0	891	15.956417131471	2
0	900	15.957151131471	3
0	907	15.957197131471	2
0	916	15.958591131471	3
0	923	15.958637131471	2
0	932	15.958911131471	3
0	939	15.958957131471	2
0	948	15.962751131471	3
0	955	15.962797131471	2
0	970	15.975671131471	3
0	977	15.975717131471	2
0	1056	15.986691131471	3
0	1063	15.986737131471	2
0	1352	20.923223131471	3
0	1359	20.923753131471	2
0	1368	20.933707131471	3
0	1376	20.934237131471	2
0	1386	20.949551131471	3
0	1393	20.950081131471	2
0	1402	20.955735131471	3
0	1409	20.956265131471	2
0	1419	20.963159131471	3
0	1426	20.963689131471	2
0	1436	20.971643131471	3
0	1443	20.972173131471	2
0	1475	20.984707131471	3
0	1482	20.985237131471	2
0	1544	21.003191131471	3
0	1551	21.003237131471	2
0	1563	21.022071131471	3
0	1570	21.022117131471	2
0	1595	21.023351131471	3
0	1602	21.023397131471	2
0	1647	21.040891131471	3
0	1654	21.040937131471	2
0	1680	21.049631131471	3
0	1687	21.049677131471	2
0	1713	21.051591131471	3
0	1720	21.051637131471	2
0	1730	21.059691131471	3
0	1738	21.059737131471	2
0	1938	25.923223131471	3
0	1945	25.923753131471	2
0	1954	25.928007131471	3
0	1961	25.928537131471	2
0	1971	25.935211131471	3
0	1978	25.935741131471	2
0	1989	25.951415131471	3
0	1996	25.951945131471	2
0	2006	25.971419131471	3
0	2013	25.971949131471	2
0	2022	25.973083131471	3
0	2029	25.973613131471	2
0	2061	25.986587131471	3
0	2068	25.987117131471	2
0	2113	26.004671131471	3
0	2120	26.004717131471	2
0	2132	26.021731131471	3
0	2139	26.021777131471	2
0	2164	26.024731131471	3
0	2171	26.024777131471	2
0	2180	26.029411131471	3
0	2187	26.029457131471	2
0	2217	26.048631131471	3
0	2224	26.048677131471	2
0	2250	26.063151131471	3
0	2257	26.063197131471	2
0	2267	26.070751131471	3
0	2274	26.070797131471	2
0	2524	30.923223131471	3
0	2531	30.923753131471	2
0	2549	30.923807582741	3
0	2559	30.923853582741	2
0	2609	30.977546647074	3
0	2619	30.977580647074	2
0	2643	30.977647088334	3
0	2655	30.977681088334	2
0	2772	35.923223131471	3
0	2779	35.923753131471	2
0	2788	35.924667131471	3
0	2795	35.925197131471	2
0	2804	35.926071131471	3
0	2811	35.926601131471	2
0	2820	35.927755131471	3
0	2827	35.928285131471	2
0	2838	35.935459131471	3
0	2845	35.935989131471	2
0	2856	35.943923131471	3
0	2863	35.944453131471	2
0	2874	35.956847131471	3
0	2881	35.957377131471	2
0	2890	35.957771131471	3
0	2897	35.957817131471	2
0	2906	35.958171131471	3
0	2913	35.958217131471	2
0	2922	35.960551131471	3
0	2929	35.960597131471	2
0	2938	35.965311131471	3
0	2945	35.965357131471	2
0	2958	35.973551131471	3
0	2965	35.973597131471	2
0	2996	35.977711131471	3
0	3003	35.977757131471	2
0	3061	35.985251131471	3
0	3068	35.985297131471	2
0	3358	40.923223131471	3
0	3365	40.923753131471	2
0	3375	40.942787131471	3
0	3382	40.943317131471	2
0	3392	40.958291131471	3
0	3399	40.958821131471	2
0	3408	40.961975131471	3
0	3415	40.962505131471	2
0	3424	40.966879131471	3
0	3431	40.967409131471	2
0	3472	40.978843131471	3
0	3487	40.979373131471	2
0	3533	40.993667131471	3
0	3540	40.994197131471	2
0	3549	40.996111131471	3
0	3556	40.996157131471	2
0	3565	40.997111131471	3
0	3572	40.997157131471	2
0	3620	41.014691131471	3
0	3627	41.014737131471	2
0	3684	41.020971131471	3
0	3691	41.021017131471	2
0	3716	41.023671131471	3
0	3723	41.023717131471	2
0	3736	41.029311131471	3
0	3743	41.029357131471	2
0	3754	41.032931131471	3
0	3761	41.032977131471	2
0	3944	45.923223131471	3
0	3951	45.923753131471	2
0	3961	45.935727131471	3
0	3968	45.936257131471	2
0	3977	45.942171131471	3
0	3984	45.942701131471	2
0	3994	45.948495131471	3
0	4001	45.949025131471	2
0	4012	45.961959131471	3
0	4019	45.962489131471	2
0	4050	45.978083131471	3
0	4057	45.978613131471	2
0	4101	45.996307131471	3
0	4108	45.996837131471	2
0	4120	46.002951131471	3
0	4127	46.002997131471	2
0	4169	46.009651131471	3
0	4176	46.009697131471	2
0	4205	46.026591131471	3
0	4212	46.026637131471	2
0	4254	46.035731131471	3
0	4261	46.035777131471	2
0	4288	46.042331131471	3
0	4295	46.042377131471	2
0	4308	46.059051131471	3
0	4315	46.059097131471	2
0	4342	46.074831131471	3
0	4349	46.074877131471	2
0	4530	50.923223131471	3
0	4537	50.923753131471	2
0	4555	50.923807389325	3
0	4565	50.923853389325	2
0	4615	50.977546550406	3
0	4625	50.977580550406	2
0	4649	50.97764679833	3
0	4661	50.97768079833	2
0	4778	55.923223131471	3
0	4785	55.923753131471	2
0	4794	55.924167131471	3
0	4801	55.924697131471	2
0	4810	55.926011131471	3
0	4817	55.926541131471	2
0	4826	55.927055131471	3
0	4833	55.927585131471	2
0	4842	55.930819131471	3
0	4849	55.931349131471	2
0	4863	55.950043131471	3
0	4870	55.950573131471	2
0	4879	55.953747131471	3
0	4886	55.954277131471	2
0	4895	55.954751131471	3
0	4902	55.954797131471	2
0	4911	55.955391131471	3
0	4918	55.955437131471	2
0	4927	55.957131131471	3
0	4934	55.957177131471	2
0	4944	55.961031131471	3
0	4951	55.961077131471	2
0	4964	55.968711131471	3
0	4971	55.968757131471	2
0	5051	55.986571131471	3
0	5058	55.986617131471	2
0	5070	55.991271131471	3
0	5077	55.991317131471	2
0	5364	60.923223131471	3
0	5371	60.923753131471	2
0	5380	60.924767131471	3
0	5387	60.925297131471	2
0	5396	60.930971131471	3
0	5403	60.931501131471	2
0	5415	60.942735131471	3
0	5422	60.943265131471	2
0	5431	60.952219131471	3
0	5438	60.952749131471	2
0	5448	60.957083131471	3
0	5455	60.957613131471	2
0	5466	60.973387131471	3
0	5473	60.973917131471	2
0	5495	60.977431131471	3
0	5502	60.977477131471	2
0	5554	60.997911131471	3
0	5561	60.997957131471	2
0	5582	61.014291131471	3
0	5589	61.014337131471	2
0	5606	61.018751131471	3
0	5613	61.018797131471	2
0	5622	61.019371131471	3
0	5629	61.019417131471	2
0	5638	61.020851131471	3
0	5645	61.020897131471	2
0	5675	61.040551131471	3
0	5682	61.040597131471	2
0	5948	65.923223131471	3
0	5955	65.923753131471	2
0	5965	65.935047131471	3
0	5972	65.935577131471	2
0	5981	65.936411131471	3
0	5988	65.936941131471	2
0	5997	65.937355131471	3
0	6004	65.937885131471	2
0	6016	65.950399131471	3
0	6023	65.950929131471	2
0	6032	65.955363131471	3
0	6039	65.955893131471	2
0	6048	65.958847131471	3
0	6055	65.959377131471	2
0	6067	65.973451131471	3
0	6074	65.973497131471	2
0	6122	65.993651131471	3
0	6129	65.993697131471	2
0	6141	66.003551131471	3
0	6148	66.003597131471	2
0	6192	66.019091131471	3
0	6199	66.019137131471	2
0	6208	66.023571131471	3
0	6215	66.023617131471	2
0	6243	66.036971131471	3
0	6250	66.037017131471	2
0	6259	66.043251131471	3
0	6266	66.043297131471	2
0	6534	70.923223131471	3
0	6541	70.923753131471	2
0	6559	70.923807586531	3
0	6569	70.923853586531	2
0	6619	70.977546648969	3
0	6629	70.977580648969	2
0	6653	70.977647094017	3
0	6665	70.977681094017	2
0	6782	75.923223131471	3
0	6789	75.923753131471	2
0	6798	75.924947131471	3
0	6805	75.925477131471	2
0	6814	75.927831131471	3
0	6821	75.928361131471	2
0	6830	75.928615131471	3
0	6837	75.929145131471	2
0	6847	75.935079131471	3
0	6855	75.935609131471	2
0	6867	75.951343131471	3
0	6874	75.951873131471	2
0	6883	75.959947131471	3
0	6890	75.960477131471	2
0	6899	75.961211131471	3
0	6906	75.961257131471	2
0	6916	75.962251131471	3
0	6923	75.962297131471	2
0	6932	75.963811131471	3
0	6939	75.963857131471	2
0	6948	75.967291131471	3
0	6955	75.967337131471	2
0	6964	75.968651131471	3
0	6971	75.968697131471	2
0	6984	75.975611131471	3
0	6991	75.975657131471	2
0	7108	75.993051131471	3
0	7115	75.993097131471	2
0	7368	80.923223131471	3
0	7375	80.923753131471	2
0	7384	80.932867131471	3
0	7391	80.933397131471	2
0	7401	80.936311131471	3
0	7408	80.936841131471	2
0	7417	80.940815131471	3
0	7424	80.941345131471	2
0	7434	80.944119131471	3
0	7441	80.944649131471	2
0	7451	80.949023131471	3
0	7458	80.949553131471	2
0	7469	80.957107131471	3
0	7476	80.957637131471	2
0	7486	80.963651131471	3
0	7493	80.963697131471	2
0	7503	80.971311131471	3
0	7510	80.971357131471	2
0	7541	80.978391131471	3
0	7548	80.978437131471	2
0	7558	80.982051131471	3
0	7565	80.982097131471	2
0	7577	80.992931131471	3
0	7584	80.992977131471	2
0	7609	80.999531131471	3
0	7616	80.999577131471	2
0	7630	81.009831131471	3
0	7637	81.009877131471	2
0	7954	85.923223131471	3
0	7961	85.923753131471	2
0	7970	85.931087131471	3
0	7977	85.931617131471	2
0	7988	85.949971131471	3
0	7995	85.950501131471	2
0	8005	85.961815131471	3
0	8012	85.962345131471	2
0	8043	85.980239131471	3
0	8050	85.980769131471	2
0	8059	85.982783131471	3
0	8066	85.983313131471	2
0	8084	85.990327131471	3
0	8099	85.990857131471	2
0	8130	86.002071131471	3
0	8137	86.002117131471	2
0	8148	86.015451131471	3
0	8155	86.015497131471	2
0	8180	86.023871131471	3
0	8187	86.023917131471	2
0	8215	86.038211131471	3
0	8222	86.038257131471	2
0	8231	86.043831131471	3
0	8238	86.043877131471	2
0	8298	86.061171131471	3
0	8305	86.061217131471	2
0	8367	86.077491131471	3
0	8374	86.077537131471	2
0	8540	90.923223131471	3
0	8547	90.923753131471	2
0	8565	90.923807394609	3
0	8575	90.923853394609	2
0	8625	90.977546553047	3
0	8635	90.977580553047	2
0	8659	90.977646806255	3
0	8671	90.977680806255	2
0	8788	95.923223131471	3
0	8795	95.923753131471	2
0	8804	95.924287131471	3
0	8811	95.924817131471	2
0	8820	95.927111131471	3
0	8827	95.927641131471	2
0	8836	95.931555131471	3
0	8843	95.932085131471	2
0	8855	95.939959131471	3
0	8862	95.940489131471	2
0	8873	95.960323131471	3
0	8880	95.960853131471	2
0	8890	95.972547131471	3
0	8897	95.973077131471	2
0	8906	95.973591131471	3
0	8913	95.973637131471	2
0	8922	95.974571131471	3
0	8929	95.974617131471	2
0	8938	95.975431131471	3
0	8945	95.975477131471	2
0	8967	95.977451131471	3
0	8974	95.977497131471	2
0	9023	95.981411131471	3
0	9030	95.981457131471	2
0	9098	96.000591131471	3
0	9105	96.000637131471	2
0	9181	96.015731131471	3
0	9188	96.015777131471	2
0	9373	100.923223131471	3
0	9380	100.923753131471	2
0	9389	100.926347131471	3
0	9396	100.926877131471	2
0	9407	100.944751131471	3
0	9414	100.945281131471	2
0	9424	100.964495131471	3
0	9431	100.965025131471	2
0	9462	100.981859131471	3
0	9469	100.982389131471	2
0	9479	100.988203131471	3
0	9486	100.988733131471	2
0	9515	101.004927131471	3
0	9522	101.005457131471	2
0	9566	101.021291131471	3
0	9573	101.021337131471	2
0	9599	101.026951131471	3
0	9606	101.026997131471	2
0	9617	101.033571131471	3
0	9624	101.033617131471	2
0	9651	101.044391131471	3
0	9658	101.044437131471	2
0	9702	101.062331131471	3
0	9709	101.062377131471	2
0	9736	101.081831131471	3
0	9743	101.081877131471	2
0	9770	101.095031131471	3
0	9778	101.095077131471	2
0	9959	105.923223131471	3
0	9966	105.923753131471	2
0	9975	105.926727131471	3
0	9982	105.927257131471	2
0	9991	105.927531131471	3
0	9998	105.928061131471	2
0	10008	105.936715131471	3
0	10015	105.937245131471	2
0	10026	105.944399131471	3
0	10033	105.944929131471	2
0	10044	105.963943131471	3
0	10051	105.964473131471	2
0	10060	105.970307131471	3
0	10067	105.970837131471	2
0	10099	105.982751131471	3
0	10106	105.982797131471	2
0	10131	105.987271131471	3
0	10138	105.987317131471	2
0	10153	106.002191131471	3
0	10160	106.002237131471	2
0	10187	106.019791131471	3
0	10194	106.019837131471	2
0	10235	106.027391131471	3
0	10242	106.027437131471	2
0	10271	106.040931131471	3
0	10278	106.040977131471	2
0	10305	106.057591131471	3
0	10312	106.057637131471	2
0	10545	110.923223131471	3
0	10552	110.923753131471	2
0	10570	110.923807591812	3
0	10580	110.923853591812	2
0	10630	110.977546651609	3
0	10640	110.977580651609	2
0	10664	110.977647101939	3
0	10676	110.977681101939	2
0	10793	115.923223131471	3
0	10800	115.923753131471	2
0	10809	115.925127131471	3
0	10816	115.925657131471	2
0	10825	115.927451131471	3
0	10832	115.927981131471	2
0	10841	115.931255131471	3
0	10848	115.931785131471	2
0	10858	115.934459131471	3
0	10865	115.934989131471	2
0	10876	115.938443131471	3
0	10883	115.938973131471	2
0	10895	115.950567131471	3
0	10902	115.951097131471	2
0	10911	115.951631131471	3
0	10918	115.951677131471	2
0	10927	115.952611131471	3
0	10934	115.952657131471	2
0	10943	115.954211131471	3
0	10950	115.954257131471	2
0	10959	115.955231131471	3
0	10966	115.955277131471	2
0	10975	115.960751131471	3
0	10982	115.960797131471	2
0	11026	115.978671131471	3
0	11033	115.978717131471	2
0	11085	115.991771131471	3
0	11092	115.991817131471	2
0	11378	120.923223131471	3
0	11385	120.923753131471	2
0	11394	120.933307131471	3
0	11402	120.933837131471	2
0	11411	120.943491131471	3
0	11419	120.944021131471	2
0	11429	120.963455131471	3
0	11436	120.963985131471	2
0	11446	120.975619131471	3
0	11453	120.976149131471	2
0	11483	120.984343131471	3
0	11490	120.984873131471	2
0	11518	120.998327131471	3
0	11525	120.998857131471	2
0	11542	120.999131131471	3
0	11549	120.999177131471	2
0	11571	121.011511131471	3
0	11578	121.011557131471	2
0	11587	121.017751131471	3
0	11594	121.017797131471	2
0	11620	121.024751131471	3
0	11627	121.024797131471	2
0	11671	121.036211131471	3
0	11678	121.036257131471	2
0	11688	121.043411131471	3
0	11695	121.043457131471	2
0	11706	121.050691131471	3
0	11713	121.050737131471	2
0	11963	125.923223131471	3
0	11970	125.923753131471	2
0	11980	125.941027131471	3
0	11987	125.941557131471	2
0	11997	125.951791131471	3
0	12004	125.952321131471	2
0	12013	125.952655131471	3
0	12020	125.953185131471	2
0	12031	125.965719131471	3
0	12038	125.966249131471	2
0	12069	125.986623131471	3
0	12076	125.987153131471	2
0	12113	126.004367131471	3
0	12128	126.004897131471	2
0	12140	126.019511131471	3
0	12147	126.019557131471	2
0	12156	126.022611131471	3
0	12163	126.022657131471	2
0	12191	126.040451131471	3
0	12198	126.040497131471	2
0	12223	126.045771131471	3
0	12230	126.045817131471	2
0	12275	126.062111131471	3
0	12282	126.062157131471	2
0	12325	126.078331131471	3
0	12332	126.078377131471	2
0	12341	126.080711131471	3
0	12348	126.080757131471	2
0	12549	130.923223131471	3
0	12556	130.923753131471	2
0	12574	130.923807382813	3
0	12584	130.923853382813	2
0	12642	130.977726547143	3
0	12649	130.977776547143	2
0	12690	130.996730787059	3
0	12700	130.996764787059	2
0	12724	130.996831025434	3
0	12736	130.996865025434	2
0	12853	135.923223131471	3
0	12860	135.923753131471	2
0	12869	135.925147131471	3
0	12876	135.925677131471	2
0	12885	135.927691131471	3
0	12892	135.928221131471	2
0	12901	135.930635131471	3
0	12908	135.931165131471	2
0	12920	135.939739131471	3
0	12927	135.940269131471	2
0	12937	135.947243131471	3
0	12944	135.947773131471	2
0	12955	135.964847131471	3
0	12962	135.965377131471	2
0	12971	135.965931131471	3
0	12978	135.965977131471	2
0	12987	135.967051131471	3
0	12994	135.967097131471	2
0	13003	135.968671131471	3
0	13010	135.968717131471	2
0	13019	135.973331131471	3
0	13026	135.973377131471	2
0	13064	135.977971131471	3
0	13074	135.978017131471	2
0	13108	135.982671131471	3
0	13115	135.982717131471	2
0	13159	135.990191131471	3
0	13166	135.990237131471	2
0	13438	140.923223131471	3
0	13445	140.923753131471	2
0	13454	140.932827131471	3
0	13461	140.933357131471	2
0	13471	140.941891131471	3
0	13478	140.942421131471	2
0	13488	140.948295131471	3
0	13495	140.948825131471	2
0	13506	140.965739131471	3
0	13513	140.966269131471	2
0	13522	140.966983131471	3
0	13529	140.967513131471	2
0	13561	140.982427131471	3
0	13568	140.982957131471	2
0	13577	140.987171131471	3
0	13584	140.987217131471	2
0	13595	140.996051131471	3
0	13602	140.996097131471	2
0	13630	141.000131131471	3
0	13637	141.000177131471	2
0	13649	141.013211131471	3
0	13656	141.013257131471	2
0	13682	141.026091131471	3
0	13689	141.026137131471	2
0	13699	141.027671131471	3
0	13706	141.027717131471	2
0	13731	141.032731131471	3
0	13738	141.032777131471	2
0	14024	145.923223131471	3
0	14031	145.923753131471	2
0	14040	145.929067131471	3
0	14047	145.929597131471	2
0	14058	145.942691131471	3
0	14065	145.943221131471	2
0	14074	145.950355131471	3
0	14081	145.950885131471	2
0	14090	145.953219131471	3
0	14098	145.953749131471	2
0	14109	145.972463131471	3
0	14116	145.972993131471	2
0	14165	145.992567131471	3
0	14172	145.993097131471	2
0	14199	146.002811131471	3
0	14206	146.002857131471	2
0	14234	146.016611131471	3
0	14241	146.016657131471	2
0	14250	146.016751131471	3
0	14257	146.016797131471	2
0	14283	146.024091131471	3
0	14290	146.024137131471	2
0	14303	146.035231131471	3
0	14310	146.035277131471	2
0	14335	146.037151131471	3
0	14342	146.037197131471	2
0	14370	146.047271131471	3
0	14377	146.047317131471	2
0	14610	150.923223131471	3
0	14617	150.923753131471	2
0	14635	150.923807598162	3
0	14645	150.923853598162	2
0	14695	150.977546654784	3
0	14705	150.977580654784	2
0	14729	150.977647111462	3
0	14741	150.977681111462	2
0	14858	155.923223131471	3
0	14865	155.923753131471	2
0	14874	155.925087131471	3
0	14881	155.925617131471	2
0	14890	155.926811131471	3
0	14897	155.927341131471	2
0	14906	155.930995131471	3
0	14913	155.931525131471	2
0	14924	155.936379131471	3
0	14931	155.936909131471	2
0	14941	155.939743131471	3
0	14948	155.940273131471	2
0	14959	155.949287131471	3
0	14966	155.949817131471	2
0	14976	155.950591131471	3
0	14983	155.950637131471	2
0	14992	155.951271131471	3
0	14999	155.951317131471	2
0	15008	155.951751131471	3
0	15015	155.951797131471	2
0	15024	155.955151131471	3
0	15031	155.955197131471	2
0	15040	155.959171131471	3
0	15047	155.959217131471	2
0	15061	155.967391131471	3
0	15068	155.967437131471	2
0	15148	155.986351131471	3
0	15155	155.986397131471	2
0	15444	160.923223131471	3
0	15451	160.923753131471	2
0	15461	160.942967131471	3
0	15468	160.943497131471	2
0	15478	160.954451131471	3
0	15485	160.954981131471	2
0	15494	160.962655131471	3
0	15501	160.963185131471	2
0	15510	160.963819131471	3
0	15517	160.964349131471	2
0	15528	160.973743131471	3
0	15535	160.974273131471	2
0	15584	160.988847131471	3
0	15592	160.989377131471	2
0	15620	161.005851131471	3
0	15627	161.005897131471	2
0	15654	161.017451131471	3
0	15661	161.017497131471	2
0	15688	161.033891131471	3
0	15695	161.033937131471	2
0	15705	161.036111131471	3
0	15712	161.036157131471	2
0	15739	161.049051131471	3
0	15746	161.049097131471	2
0	15774	161.068611131471	3
0	15781	161.068657131471	2
0	15806	161.075291131471	3
0	15813	161.075337131471	2
0	16030	165.923223131471	3
0	16037	165.923753131471	2
0	16046	165.930127131471	3
0	16053	165.930657131471	2
0	16064	165.949631131471	3
0	16071	165.950161131471	2
0	16081	165.962235131471	3
0	16088	165.962765131471	2
0	16097	165.970779131471	3
0	16104	165.971309131471	2
0	16114	165.975903131471	3
0	16121	165.976433131471	2
0	16171	165.993287131471	3
0	16178	165.993817131471	2
0	16205	166.000691131471	3
0	16212	166.000737131471	2
0	16222	166.005211131471	3
0	16229	166.005257131471	2
0	16239	166.010271131471	3
0	16246	166.010317131471	2
0	16256	166.012411131471	3
0	16263	166.012457131471	2
0	16306	166.020851131471	3
0	16313	166.020897131471	2
0	16358	166.031151131471	3
0	16365	166.031197131471	2
0	16393	166.043811131471	3
0	16400	166.043857131471	2
0	16616	170.923223131471	3
0	16623	170.923753131471	2
0	16641	170.923807386174	3
0	16651	170.923853386174	2
0	16701	170.977546548819	3
0	16711	170.977580548819	2
0	16735	170.977646793569	3
0	16747	170.977680793569	2
0	16864	175.923223131471	3
0	16871	175.923753131471	2
0	16880	175.924487131471	3
0	16887	175.925017131471	2
0	16896	175.926331131471	3
0	16903	175.926861131471	2
0	16912	175.929455131471	3
0	16919	175.929985131471	2
0	16930	175.936599131471	3
0	16938	175.937129131471	2
0	16948	175.946283131471	3
0	16955	175.946813131471	2
0	16966	175.961187131471	3
0	16973	175.961717131471	2
0	16982	175.962391131471	3
0	16989	175.962437131471	2
0	16998	175.963211131471	3
0	17005	175.963257131471	2
0	17014	175.964931131471	3
0	17021	175.964977131471	2
0	17030	175.965131131471	3
0	17037	175.965177131471	2
0	17046	175.969031131471	3
0	17053	175.969077131471	2
0	17065	175.973931131471	3
0	17072	175.973977131471	2
0	17155	175.987611131471	3
0	17162	175.987657131471	2
0	17450	180.923223131471	3
0	17457	180.923753131471	2
0	17466	180.930527131471	3
0	17473	180.931057131471	2
0	17482	180.933251131471	3
0	17490	180.933781131471	2
0	17501	180.947855131471	3
0	17508	180.948385131471	2
0	17518	180.965479131471	3
0	17525	180.966009131471	2
0	17556	180.984543131471	3
0	17563	180.985073131471	2
0	17572	180.985967131471	3
0	17579	180.986497131471	2
0	17605	180.991431131471	3
0	17612	180.991477131471	2
0	17639	180.996571131471	3
0	17646	180.996617131471	2
0	17709	181.012031131471	3
0	17716	181.012077131471	2
0	17726	181.016751131471	3
0	17733	181.016797131471	2
0	17795	181.036531131471	3
0	17802	181.036577131471	2
0	17811	181.039051131471	3
0	17818	181.039097131471	2
0	17838	181.052731131471	3
0	17851	181.052777131471	2
0	18036	185.923223131471	3
0	18043	185.923753131471	2
0	18053	185.935667131471	3
0	18060	185.936197131471	2
0	18070	185.956771131471	3
0	18077	185.957301131471	2
0	18087	185.976495131471	3
0	18107	185.977025131471	2
0	18142	185.988899131471	3
0	18149	185.989429131471	2
0	18159	185.992283131471	3
0	18166	185.992813131471	2
0	18195	186.004187131471	3
0	18202	186.004717131471	2
0	18211	186.008311131471	3
0	18218	186.008357131471	2
0	18260	186.017471131471	3
0	18267	186.017517131471	2
0	18278	186.023871131471	3
0	18285	186.023917131471	2
0	18313	186.033511131471	3
0	18320	186.033557131471	2
0	18346	186.041391131471	3
0	18353	186.041437131471	2
0	18383	186.055891131471	3
0	18390	186.055937131471	2
0	18399	186.059971131471	3
0	18406	186.060017131471	2
0	18622	190.923223131471	3
0	18629	190.923753131471	2
0	18647	190.923807604055	3
0	18657	190.923853604055	2
0	18707	190.977546657729	3
0	18717	190.977580657729	2
0	18741	190.977647120299	3
0	18753	190.977681120299	2
0	18870	195.923223131471	3
0	18877	195.923753131471	2
0	18886	195.925107131471	3
0	18893	195.925637131471	2
0	18902	195.926811131471	3
0	18909	195.927341131471	2
0	18918	195.931195131471	3
0	18925	195.931725131471	2
0	18935	195.934959131471	3
0	18942	195.935489131471	2
0	18955	195.949143131471	3
0	18962	195.949673131471	2
0	18972	195.968147131471	3
0	18979	195.968677131471	2
0	18988	195.968891131471	3
0	18995	195.968937131471	2
0	19004	195.969311131471	3
0	19011	195.969357131471	2
0	19020	195.971711131471	3
0	19027	195.971757131471	2
0	19036	195.974551131471	3
0	19043	195.974597131471	2
0	19109	195.983431131471	3
0	19116	195.983477131471	2
0	19181	196.002151131471	3
0	19188	196.002197131471	2
0	19296	196.014891131471	3
0	19303	196.014937131471	2
0	19456	200.923223131471	3
0	19463	200.923753131471	2
0	19473	200.933907131471	3
0	19480	200.934437131471	2
0	19490	200.952131131471	3
0	19497	200.952661131471	2
0	19507	200.964135131471	3
0	19514	200.964665131471	2
0	19553	200.984879131471	3
0	19568	200.985409131471	2
0	19580	200.997303131471	3
0	19587	200.997833131471	2
0	19598	201.000947131471	3
0	19605	201.001477131471	2
0	19633	201.017111131471	3
0	19640	201.017157131471	2
0	19713	201.030111131471	3
0	19721	201.030157131471	2
0	19750	201.040111131471	3
0	19757	201.040157131471	2
0	19767	201.042431131471	3
0	19774	201.042477131471	2
0	19852	201.062131131471	3
0	19859	201.062177131471	2
0	19870	201.070931131471	3
0	19877	201.070977131471	2
0	19921	201.091191131471	3
0	19928	201.091237131471	2
0	20042	205.923223131471	3
0	20049	205.923753131471	2
0	20059	205.935867131471	3
0	20066	205.936397131471	2
0	20075	205.946391131471	3
0	20083	205.946921131471	2
0	20092	205.953535131471	3
0	20099	205.954065131471	2
0	20110	205.971999131471	3
0	20117	205.972529131471	2
0	20148	205.983363131471	3
0	20155	205.983893131471	2
0	20164	205.984647131471	3
0	20171	205.985177131471	2
0	20197	205.993571131471	3
0	20204	205.993617131471	2
0	20215	205.997311131471	3
0	20222	205.997357131471	2
0	20234	206.003531131471	3
0	20241	206.003577131471	2
0	20286	206.022911131471	3
0	20293	206.022957131471	2
0	20302	206.028211131471	3
0	20309	206.028257131471	2
0	20336	206.035791131471	3
0	20343	206.035837131471	2
0	20355	206.050831131471	3
0	20362	206.050877131471	2
0	20628	210.923223131471	3
0	20635	210.923753131471	2
0	20653	210.92380739109	3
0	20663	210.92385339109	2
0	20713	210.977546551288	3
0	20723	210.977580551288	2
0	20747	210.977646800976	3
0	20759	210.977680800976	2
0	20876	215.923223131471	3
0	20883	215.923753131471	2
0	20892	215.925107131471	3
0	20899	215.925637131471	2
0	20908	215.926491131471	3
0	20915	215.927021131471	2
0	20924	215.930295131471	3
0	20931	215.930825131471	2
0	20940	215.932999131471	3
0	20947	215.933529131471	2
0	20959	215.938063131471	3
0	20966	215.938593131471	2
0	20977	215.944907131471	3
0	20984	215.945437131471	2
0	20993	215.946111131471	3
0	21000	215.946157131471	2
0	21009	215.946611131471	3
0	21016	215.946657131471	2
0	21025	215.947151131471	3
0	21032	215.947197131471	2
0	21042	215.951731131471	3
0	21049	215.951777131471	2
0	21058	215.954991131471	3
0	21065	215.955037131471	2
0	21080	215.966811131471	3
0	21087	215.966857131471	2
0	21096	215.972431131471	3
0	21103	215.972477131471	2
0	21462	220.923223131471	3
0	21469	220.923753131471	2
0	21479	220.938567131471	3
0	21486	220.939097131471	2
0	21496	220.956631131471	3
0	21503	220.957161131471	2
0	21512	220.966175131471	3
0	21519	220.966705131471	2
0	21583	220.986219131471	3
0	21590	220.986749131471	2
0	21599	220.987343131471	3
0	21607	220.987873131471	2
0	21622	221.001727131471	3
0	21629	221.002257131471	2
0	21672	221.015051131471	3
0	21679	221.015097131471	2
0	21721	221.022491131471	3
0	21728	221.022537131471	2
0	21739	221.027131131471	3
0	21746	221.027177131471	2
0	21774	221.040311131471	3
0	21781	221.040357131471	2
0	21790	221.042811131471	3
0	21797	221.042857131471	2
0	21841	221.053851131471	3
0	21848	221.053897131471	2
0	21890	221.072011131471	3
0	21899	221.072057131471	2
0	22048	225.923223131471	3
0	22055	225.923753131471	2
0	22064	225.929187131471	3
0	22071	225.929717131471	2
0	22082	225.942191131471	3
0	22089	225.942721131471	2
0	22099	225.961595131471	3
0	22106	225.962125131471	2
0	22115	225.968939131471	3
0	22122	225.969469131471	2
0	22145	225.977063131471	3
0	22159	225.977593131471	2
0	22188	225.991587131471	3
0	22195	225.992117131471	2
0	22205	225.997471131471	3
0	22212	225.997517131471	2
0	22240	226.004251131471	3
0	22247	226.004297131471	2
0	22259	226.014811131471	3
0	22266	226.014857131471	2
0	22293	226.027491131471	3
0	22300	226.027537131471	2
0	22309	226.035411131471	3
0	22316	226.035457131471	2
0	22376	226.048111131471	3
0	22383	226.048157131471	2
0	22444	226.064471131471	3
0	22451	226.064517131471	2
0	22634	230.923223131471	3
0	22641	230.923753131471	2
0	22659	230.923807608957	3
0	22669	230.923853608957	2
0	22719	230.97754666018	3
0	22729	230.97758066018	2
0	22753	230.977647127652	3
0	22765	230.977681127652	2
0	22882	235.923223131471	3
0	22889	235.923753131471	2
0	22898	235.924827131471	3
0	22905	235.925357131471	2
0	22914	235.927651131471	3
0	22921	235.928181131471	2
0	22930	235.932635131471	3
0	22937	235.933165131471	2
0	22946	235.933479131471	3
0	22954	235.934009131471	2
0	22967	235.946443131471	3
0	22974	235.946973131471	2
0	22984	235.958367131471	3
0	22991	235.958897131471	2
0	23000	235.959251131471	3
0	23007	235.959297131471	2
0	23016	235.959911131471	3
0	23023	235.959957131471	2
0	23032	235.960651131471	3
0	23039	235.960697131471	2
0	23048	235.963451131471	3
0	23055	235.963497131471	2
0	23064	235.966451131471	3
0	23071	235.966497131471	2
0	23155	235.985771131471	3
0	23162	235.985817131471	2
0	23191	235.995831131471	3
0	23199	235.995877131471	2
0	23468	240.923223131471	3
0	23475	240.923753131471	2
0	23484	240.932007131471	3
0	23491	240.932537131471	2
0	23501	240.940511131471	3
0	23508	240.941041131471	2
0	23519	240.957315131471	3
0	23526	240.957845131471	2
0	23536	240.969939131471	3
0	23543	240.970469131471	2
0	23552	240.973203131471	3
0	23559	240.973733131471	2
0	23590	240.983607131471	3
0	23598	240.984137131471	2
0	23615	240.987411131471	3
0	23622	240.987457131471	2
0	23661	241.002611131471	3
0	23668	241.002657131471	2
0	23728	241.022711131471	3
0	23735	241.022757131471	2
0	23777	241.031111131471	3
0	23784	241.031157131471	2
0	23813	241.045631131471	3
0	23820	241.045677131471	2
0	23847	241.061051131471	3
0	23854	241.061097131471	2
0	23865	241.072651131471	3
0	23872	241.072697131471	2
0	24053	245.923223131471	3
0	24060	245.923753131471	2
0	24069	245.926267131471	3
0	24076	245.926797131471	2
0	24087	245.941811131471	3
0	24094	245.942341131471	2
0	24104	245.957875131471	3
0	24111	245.958405131471	2
0	24121	245.975079131471	3
0	24128	245.975609131471	2
0	24174	245.982163131471	3
0	24181	245.982693131471	2
0	24212	246.001947131471	3
0	24219	246.002477131471	2
0	24246	246.012511131471	3
0	24253	246.012557131471	2
0	24262	246.014231131471	3
0	24269	246.014277131471	2
0	24328	246.029211131471	3
0	24336	246.029257131471	2
0	24365	246.047591131471	3
0	24372	246.047637131471	2
0	24416	246.064511131471	3
0	24423	246.064557131471	2
0	24450	246.081831131471	3
0	24457	246.081877131471	2
0	24482	246.082111131471	3
0	24489	246.082157131471	2
0	24639	250.923223131471	3
0	24646	250.923753131471	2
0	24664	250.923807396098	3
0	24674	250.923853396098	2
0	24724	250.97754655379	3
0	24734	250.97758055379	2
0	24758	250.977646808483	3
0	24770	250.977680808483	2
0	24887	255.923223131471	3
0	24894	255.923273131471	2
0	24945	256.923223131471	3
0	24952	256.923273131471	2
0	25001	257.923223131471	3
0	25008	257.923273131471	2
0	25101	260.923223131471	3
0	25108	260.923273131471	2
0	25159	261.923223131471	3
0	25166	261.923273131471	2
0	25215	262.923223131471	3
0	25222	262.923273131471	2
0	25315	265.923223131471	3
0	25322	265.923273131471	2
0	25373	266.923223131471	3
0	25380	266.923273131471	2
0	25429	267.923223131471	3
0	25436	267.923273131471	2
0	25529	270.923223131471	3
0	25536	270.923273131471	2
0	25563	270.923383592773	3
0	25574	270.923417592773	2
0	25582	270.923807592773	3
0	25589	270.924337592773	2
0	25607	270.924392053892	3
0	25617	270.924438053892	2
0	25670	270.977546652032	3
0	25680	270.977580652032	2
0	25704	270.977647103206	3
0	25716	270.977681103206	2
0	25833	275.923223131471	3
0	25840	275.923753131471	2
0	25849	275.925167131471	3
0	25856	275.925697131471	2
0	25865	275.926471131471	3
0	25872	275.927001131471	2
0	25881	275.929855131471	3
0	25888	275.930385131471	2
0	25900	275.939859131471	3
0	25907	275.940389131471	2
0	25917	275.945183131471	3
0	25924	275.945713131471	2
0	25935	275.955987131471	3
0	25942	275.956517131471	2
0	25951	275.956871131471	3
0	25958	275.956917131471	2
0	25967	275.957451131471	3
0	25974	275.957497131471	2
0	25983	275.958191131471	3
0	25990	275.958237131471	2
0	25999	275.963431131471	3
0	26006	275.963477131471	2
0	26015	275.963951131471	3
0	26022	275.963997131471	2
0	26074	275.979531131471	3
0	26081	275.979577131471	2
0	26124	275.988691131471	3
0	26131	275.988737131471	2
0	26419	280.923223131471	3
0	26426	280.923753131471	2
0	26435	280.933507131471	3
0	26443	280.934037131471	2
0	26453	280.945051131471	3
0	26460	280.945581131471	2
0	26469	280.950275131471	3
0	26476	280.950805131471	2
0	26487	280.963119131471	3
0	26494	280.963649131471	2
0	26503	280.968603131471	3
0	26510	280.969133131471	2
0	26542	280.982867131471	3
0	26557	280.983397131471	2
0	26596	281.000931131471	3
0	26603	281.000977131471	2
0	26645	281.011231131471	3
0	26652	281.011277131471	2
0	26663	281.015371131471	3
0	26670	281.015417131471	2
0	26712	281.023191131471	3
0	26719	281.023237131471	2
0	26730	281.030671131471	3
0	26737	281.030717131471	2
0	26764	281.039751131471	3
0	26771	281.039797131471	2
0	26799	281.054471131471	3
0	26806	281.054517131471	2
0	27005	285.923223131471	3
0	27012	285.923753131471	2
0	27022	285.942207131471	3
0	27029	285.942737131471	2
0	27039	285.962451131471	3
0	27046	285.962981131471	2
0	27077	285.980775131471	3
0	27084	285.981305131471	2
0	27110	285.988979131471	3
0	27117	285.989509131471	2
0	27131	286.004723131471	3
0	27138	286.005253131471	2
0	27181	286.021247131471	3
0	27188	286.021777131471	2
0	27199	286.032431131471	3
0	27206	286.032477131471	2
0	27233	286.051151131471	3
0	27240	286.051197131471	2
0	27265	286.053671131471	3
0	27272	286.053717131471	2
0	27316	286.065011131471	3
0	27323	286.065057131471	2
0	27352	286.079031131471	3
0	27359	286.079077131471	2
0	27384	286.086291131471	3
0	27391	286.086337131471	2
0	27419	286.098411131471	3
0	27426	286.098457131471	2
0	27591	290.923223131471	3
0	27598	290.923753131471	2
0	27616	290.923807400214	3
0	27626	290.923853400214	2
0	27676	290.977546555849	3
0	27686	290.977580555849	2
0	27710	290.977646814659	3
0	27722	290.977680814659	2
0	27839	295.923223131471	3
0	27846	295.923753131471	2
0	27855	295.923967131471	3
0	27862	295.924497131471	2
0	27871	295.927031131471	3
0	27878	295.927561131471	2
0	27887	295.928935131471	3
0	27894	295.929465131471	2
0	27903	295.932939131471	3
0	27910	295.933469131471	2
0	27924	295.951683131471	3
0	27931	295.952213131471	2
0	27940	295.957627131471	3
0	27947	295.958157131471	2
0	27956	295.958471131471	3
0	27963	295.958517131471	2
0	27972	295.959311131471	3
0	27979	295.959357131471	2
0	27988	295.961211131471	3
0	27995	295.961257131471	2
0	28005	295.964891131471	3
0	28012	295.964937131471	2
0	28023	295.969171131471	3
0	28030	295.969217131471	2
0	28042	295.976111131471	3
0	28049	295.976157131471	2
0	28136	295.983651131471	3
0	28143	295.983697131471	2
0	28424	300.923223131471	3
0	28431	300.923753131471	2
0	28441	300.936147131471	3
0	28448	300.936677131471	2
0	28458	300.947531131471	3
0	28465	300.948061131471	2
0	28475	300.966575131471	3
0	28482	300.967105131471	2
0	28521	300.980939131471	3
0	28536	300.981469131471	2
0	28582	301.001363131471	3
0	28589	301.001893131471	2
0	28599	301.005747131471	3
0	28606	301.006277131471	2
0	28666	301.018711131471	3
0	28673	301.018757131471	2
0	28703	301.034431131471	3
0	28710	301.034477131471	2
0	28719	301.036511131471	3
0	28726	301.036557131471	2
0	28735	301.041411131471	3
0	28742	301.041457131471	2
0	28769	301.049611131471	3
0	28776	301.049657131471	2
0	28785	301.049971131471	3
0	28792	301.050017131471	2
0	28821	301.069971131471	3
0	28829	301.070017131471	2
0	29010	305.923223131471	3
0	29017	305.923753131471	2
0	29027	305.941067131471	3
0	29034	305.941597131471	2
0	29044	305.951651131471	3
0	29051	305.952181131471	2
0	29061	305.963375131471	3
0	29068	305.963905131471	2
0	29077	305.965119131471	3
0	29084	305.965649131471	2
0	29093	305.966163131471	3
0	29100	305.966693131471	2
0	29133	305.985267131471	3
0	29140	305.985797131471	2
0	29150	305.994591131471	3
0	29157	305.994637131471	2
0	29203	306.007411131471	3
0	29210	306.007457131471	2
0	29229	306.020451131471	3
0	29236	306.020497131471	2
0	29253	306.028131131471	3
0	29260	306.028177131471	2
0	29287	306.043931131471	3
0	29294	306.043977131471	2
0	29304	306.052451131471	3
0	29311	306.052497131471	2
0	29321	306.056191131471	3
0	29328	306.056237131471	2
0	29595	310.923223131471	3
0	29602	310.923753131471	2
0	29620	310.923807597415	3
0	29630	310.923853597415	2
0	29680	310.97754665441	3
0	29690	310.97758065441	2
0	29714	310.97764711034	3
0	29726	310.97768111034	2
0	29843	315.923223131471	3
0	29850	315.923753131471	2
0	29859	315.925047131471	3
0	29866	315.925577131471	2
0	29875	315.927531131471	3
0	29882	315.928061131471	2
0	29891	315.933275131471	3
0	29899	315.933805131471	2
0	29910	315.939039131471	3
0	29917	315.939569131471	2
0	29928	315.949843131471	3
0	29935	315.950373131471	2
0	29945	315.967287131471	3
0	29952	315.967817131471	2
0	29961	315.968431131471	3
0	29968	315.968477131471	2
0	29977	315.969591131471	3
0	29984	315.969637131471	2
0	29993	315.971451131471	3
0	30000	315.971497131471	2
0	30009	315.975291131471	3
0	30016	315.975337131471	2
0	30082	315.982411131471	3
0	30089	315.982457131471	2
0	30131	315.987271131471	3
0	30138	315.987317131471	2
0	30167	315.995231131471	3
0	30174	315.995277131471	2
0	30429	320.923223131471	3
0	30436	320.923753131471	2
0	30446	320.937927131471	3
0	30453	320.938457131471	2
0	30462	320.941231131471	3
0	30469	320.941761131471	2
0	30480	320.960235131471	3
0	30487	320.960765131471	2
0	30497	320.974819131471	3
0	30504	320.975349131471	2
0	30534	320.981223131471	3
0	30541	320.981753131471	2
0	30569	320.993647131471	3
0	30576	320.994177131471	2
0	30605	321.013931131471	3
0	30612	321.013977131471	2
0	30638	321.023591131471	3
0	30645	321.023637131471	2
0	30674	321.042671131471	3
0	30681	321.042717131471	2
0	30738	321.051591131471	3
0	30745	321.051637131471	2
0	30790	321.061171131471	3
0	30797	321.061217131471	2
0	30843	321.077831131471	3
0	30850	321.077877131471	2
0	30877	321.095551131471	3
0	30884	321.095597131471	2
0	31015	325.923223131471	3
0	31022	325.923753131471	2
0	31031	325.929567131471	3
0	31038	325.930097131471	2
0	31048	325.937471131471	3
0	31055	325.938001131471	2
0	31066	325.953775131471	3
0	31073	325.954305131471	2
0	31083	325.971659131471	3
0	31090	325.972189131471	2
0	31121	325.987363131471	3
0	31129	325.987893131471	2
0	31157	326.001207131471	3
0	31164	326.001737131471	2
0	31191	326.012491131471	3
0	31198	326.012537131471	2
0	31207	326.013291131471	3
0	31214	326.013337131471	2
0	31240	326.016871131471	3
0	31247	326.016917131471	2
0	31276	326.033171131471	3
0	31283	326.033217131471	2
0	31325	326.037411131471	3
0	31332	326.037457131471	2
0	31361	326.052631131471	3
0	31368	326.052677131471	2
0	31412	326.071151131471	3
0	31419	326.071197131471	2
0	31601	330.923223131471	3
0	31608	330.923753131471	2
0	31626	330.923807406138	3
0	31636	330.923853406138	2
0	31686	330.977546558807	3
0	31696	330.977580558807	2
0	31720	330.977646823533	3
0	31732	330.977680823533	2
0	31849	335.923223131471	3
0	31856	335.923753131471	2
0	31865	335.924187131471	3
0	31872	335.924717131471	2
0	31881	335.925811131471	3
0	31888	335.926341131471	2
0	31897	335.926735131471	3
0	31904	335.927265131471	2
0	31917	335.937459131471	3
0	31924	335.937989131471	2
0	31934	335.950523131471	3
0	31941	335.951053131471	2
0	31951	335.968207131471	3
0	31958	335.968737131471	2
0	31967	335.969051131471	3
0	31974	335.969097131471	2
0	31983	335.969611131471	3
0	31990	335.969657131471	2
0	31999	335.971631131471	3
0	32006	335.971677131471	2
0	32015	335.975671131471	3
0	32022	335.975717131471	2
0	32088	335.982531131471	3
0	32095	335.982577131471	2
0	32160	336.003051131471	3
0	32167	336.003097131471	2
0	32177	336.011311131471	3
0	32184	336.011357131471	2
0	32435	340.923223131471	3
0	32442	340.923753131471	2
0	32452	340.943387131471	3
0	32459	340.943917131471	2
0	32468	340.949491131471	3
0	32475	340.950021131471	2
0	32486	340.968495131471	3
0	32493	340.969025131471	2
0	32502	340.970779131471	3
0	32509	340.971309131471	2
0	32542	340.990983131471	3
0	32549	340.991513131471	2
0	32589	340.997707131471	3
0	32597	340.998237131471	2
0	32608	341.000251131471	3
0	32615	341.000297131471	2
0	32624	341.001271131471	3
0	32631	341.001317131471	2
0	32663	341.017071131471	3
0	32670	341.017117131471	2
0	32696	341.029191131471	3
0	32703	341.029237131471	2
0	32714	341.041111131471	3
0	32721	341.041157131471	2
0	32747	341.051451131471	3
0	32754	341.051497131471	2
0	32798	341.063731131471	3
0	32805	341.063777131471	2
0	33021	345.923223131471	3
0	33028	345.923753131471	2
0	33038	345.938347131471	3
0	33045	345.938877131471	2
0	33054	345.939891131471	3
0	33061	345.940421131471	2
0	33071	345.950095131471	3
0	33079	345.950625131471	2
0	33089	345.965859131471	3
0	33096	345.966389131471	2
0	33105	345.970463131471	3
0	33112	345.970993131471	2
0	33145	345.990047131471	3
0	33152	345.990577131471	2
0	33177	345.997171131471	3
0	33184	345.997217131471	2
0	33197	346.002031131471	3
0	33204	346.002077131471	2
0	33279	346.015411131471	3
0	33286	346.015457131471	2
0	33316	346.029111131471	3
0	33323	346.029157131471	2
0	33334	346.042471131471	3
0	33341	346.042517131471	2
0	33383	346.058651131471	3
0	33390	346.058697131471	2
0	33417	346.067311131471	3
0	33424	346.067357131471	2
0	33607	350.923223131471	3
0	33614	350.923753131471	2
0	33632	350.923807582678	3
0	33642	350.923853582678	2
0	33692	350.97754664704	3
0	33702	350.97758064704	2
1	0	0	0
2	0	0	0
2	0	0	0
2	0	0	2
2	54	0.977006426393	3
2	61	0.977056426393	2
2	110	1.977006426393	3
2	117	1.977056426393	2
2	166	2.977006426393	3
2	173	2.977056426393	2
2	268	5.977006426393	3
2	275	5.977056426393	2
2	324	6.977006426393	3
2	331	6.977056426393	2
2	380	7.977006426393	3
2	387	7.977056426393	2
2	481	10.923623269307	3
2	488	10.923673269307	2
2	526	10.924607544837	3
2	536	10.924641544837	2
2	560	10.92470782019	3
2	572	10.92474182019	2
2	592	10.977006426393	3
2	599	10.977536426393	2
2	617	10.977590692258	3
2	627	10.977636692258	2
2	991	15.977006426393	3
2	998	15.977536426393	2
2	1007	15.978770426393	3
2	1014	15.979300426393	2
2	1023	15.979954426393	3
2	1030	15.980484426393	2
2	1039	15.983938426393	3
2	1046	15.984468426393	2
2	1076	15.994862426393	3
2	1083	15.995392426393	2
2	1095	16.004766426393	3
2	1102	16.005296426393	2
2	1113	16.023130426393	3
2	1120	16.023660426393	2
2	1129	16.024314426393	3
2	1136	16.024360426393	2
2	1145	16.025014426393	3
2	1152	16.025060426393	2
2	1161	16.025834426393	3
2	1168	16.025880426393	2
2	1177	16.028534426393	3
2	1184	16.028580426393	2
2	1193	16.031234426393	3
2	1200	16.031280426393	2
2	1215	16.050014426393	3
2	1222	16.050060426393	2
2	1231	16.051214426393	3
2	1238	16.051260426393	2
2	1458	20.977006426393	3
2	1465	20.977536426393	2
2	1492	20.988590426393	3
2	1499	20.989120426393	2
2	1508	20.994454426393	3
2	1515	20.994984426393	2
2	1528	21.001598426393	3
2	1535	21.002128426393	2
2	1579	21.022302426393	3
2	1586	21.022832426393	2
2	1611	21.028846426393	3
2	1618	21.029376426393	2
2	1627	21.031950426393	3
2	1635	21.032480426393	2
2	1664	21.048254426393	3
2	1671	21.048300426393	2
2	1696	21.050034426393	3
2	1703	21.050080426393	2
2	1749	21.068094426393	3
2	1756	21.068140426393	2
2	1767	21.080454426393	3
2	1774	21.080500426393	2
2	1784	21.091894426393	3
2	1791	21.091940426393	2
2	1803	21.110194426393	3
2	1810	21.110240426393	2
2	1820	21.122994426393	3
2	1827	21.123040426393	2
2	2043	25.977006426393	3
2	2050	25.977536426393	2
2	2079	25.997170426393	3
2	2086	25.997700426393	2
2	2097	26.001494426393	3
2	2104	26.002024426393	2
2	2148	26.022218426393	3
2	2155	26.022748426393	2
2	2199	26.036142426393	3
2	2206	26.036672426393	2
2	2233	26.052686426393	3
2	2240	26.053216426393	2
2	2283	26.071590426393	3
2	2290	26.072120426393	2
2	2302	26.089374426393	3
2	2309	26.089420426393	2
2	2321	26.100714426393	3
2	2328	26.100760426393	2
2	2337	26.106954426393	3
2	2344	26.107000426393	2
2	2355	26.118714426393	3
2	2362	26.118760426393	2
2	2371	26.122234426393	3
2	2378	26.122280426393	2
2	2389	26.135874426393	3
2	2396	26.135920426393	2
2	2405	26.144974426393	3
2	2412	26.145020426393	2
2	2535	30.923763357137	3
2	2545	30.923797357137	2
2	2569	30.92386380834	3
2	2581	30.92389780834	2
2	2598	30.977006426393	3
2	2605	30.977536426393	2
2	2623	30.977590867706	3
2	2633	30.977636867706	2
2	2980	35.977006426393	3
2	2987	35.977536426393	2
2	3012	35.977930426393	3
2	3019	35.978460426393	2
2	3028	35.979514426393	3
2	3035	35.980044426393	2
2	3045	35.983958426393	3
2	3052	35.984488426393	2
2	3081	35.992342426393	3
2	3088	35.992872426393	2
2	3097	35.993526426393	3
2	3104	35.994056426393	2
2	3119	36.008230426393	3
2	3126	36.008760426393	2
2	3135	36.008994426393	3
2	3142	36.009040426393	2
2	3151	36.010274426393	3
2	3158	36.010320426393	2
2	3167	36.012374426393	3
2	3174	36.012420426393	2
2	3183	36.013754426393	3
2	3190	36.013800426393	2
2	3202	36.022274426393	3
2	3209	36.022320426393	2
2	3221	36.037094426393	3
2	3228	36.037140426393	2
2	3237	36.039694426393	3
2	3244	36.039740426393	2
2	3447	40.977006426393	3
2	3455	40.977536426393	2
2	3464	40.978550426393	3
2	3479	40.979080426393	2
2	3496	40.980434426393	3
2	3503	40.980964426393	2
2	3512	40.981878426393	3
2	3519	40.982408426393	2
2	3581	40.998162426393	3
2	3588	40.998692426393	2
2	3597	40.999106426393	3
2	3604	40.999636426393	2
2	3636	41.015230426393	3
2	3643	41.015760426393	2
2	3652	41.017554426393	3
2	3659	41.017600426393	2
2	3668	41.018334426393	3
2	3675	41.018380426393	2
2	3700	41.022114426393	3
2	3707	41.022160426393	2
2	3771	41.038374426393	3
2	3778	41.038420426393	2
2	3790	41.049594426393	3
2	3797	41.049640426393	2
2	3806	41.057154426393	3
2	3813	41.057200426393	2
2	3823	41.060974426393	3
2	3830	41.061020426393	2
2	4034	45.977006426393	3
2	4041	45.977536426393	2
2	4066	45.982250426393	3
2	4073	45.982780426393	2
2	4083	45.988354426393	3
2	4091	45.988884426393	2
2	4136	46.006678426393	3
2	4144	46.007208426393	2
2	4153	46.007782426393	3
2	4160	46.008312426393	2
2	4189	46.020646426393	3
2	4196	46.021176426393	2
2	4221	46.029570426393	3
2	4228	46.030100426393	2
2	4238	46.035254426393	3
2	4245	46.035300426393	2
2	4271	46.038994426393	3
2	4278	46.039040426393	2
2	4324	46.059214426393	3
2	4331	46.059260426393	2
2	4358	46.076634426393	3
2	4365	46.076680426393	2
2	4374	46.081974426393	3
2	4381	46.082020426393	2
2	4395	46.101374426393	3
2	4402	46.101420426393	2
2	4412	46.116494426393	3
2	4419	46.116540426393	2
2	4541	50.923763260429	3
2	4551	50.923797260429	2
2	4575	50.923863518216	3
2	4587	50.923897518216	2
2	4604	50.977006426393	3
2	4611	50.977536426393	2
2	4629	50.97759067437	3
2	4639	50.97763667437	2
2	4986	55.977006426393	3
2	4993	55.977536426393	2
2	5002	55.978110426393	3
2	5009	55.978640426393	2
2	5019	55.979494426393	3
2	5026	55.980024426393	2
2	5035	55.982298426393	3
2	5042	55.982828426393	2
2	5084	55.991342426393	3
2	5093	55.991872426393	2
2	5108	56.002206426393	3
2	5115	56.002736426393	2
2	5125	56.018190426393	3
2	5132	56.018720426393	2
2	5141	56.019414426393	3
2	5148	56.019460426393	2
2	5157	56.019674426393	3
2	5164	56.019720426393	2
2	5173	56.021514426393	3
2	5180	56.021560426393	2
2	5189	56.022274426393	3
2	5196	56.022320426393	2
2	5205	56.022674426393	3
2	5212	56.022720426393	2
2	5227	56.039594426393	3
2	5234	56.039640426393	2
2	5244	56.053654426393	3
2	5251	56.053700426393	2
2	5487	60.977006426393	3
2	5510	60.977536426393	2
2	5519	60.980310426393	3
2	5526	60.980840426393	2
2	5538	60.995734426393	3
2	5545	60.996264426393	2
2	5574	61.014178426393	3
2	5597	61.014708426393	2
2	5654	61.022522426393	3
2	5661	61.023052426393	2
2	5691	61.043386426393	3
2	5698	61.043916426393	2
2	5709	61.059530426393	3
2	5716	61.060060426393	2
2	5725	61.064934426393	3
2	5732	61.064980426393	2
2	5743	61.079394426393	3
2	5750	61.079440426393	2
2	5760	61.099494426393	3
2	5767	61.099540426393	2
2	5778	61.105454426393	3
2	5785	61.105500426393	2
2	5796	61.120114426393	3
2	5803	61.120160426393	2
2	5813	61.140694426393	3
2	5820	61.140740426393	2
2	5830	61.154854426393	3
2	5837	61.154900426393	2
2	6088	65.977006426393	3
2	6095	65.977536426393	2
2	6106	65.991090426393	3
2	6113	65.991620426393	2
2	6158	66.004274426393	3
2	6165	66.004804426393	2
2	6176	66.015778426393	3
2	6183	66.016308426393	2
2	6227	66.036082426393	3
2	6234	66.036612426393	2
2	6277	66.053226426393	3
2	6285	66.053756426393	2
2	6294	66.057430426393	3
2	6301	66.057960426393	2
2	6310	66.061114426393	3
2	6317	66.061160426393	2
2	6329	66.080234426393	3
2	6336	66.080280426393	2
2	6346	66.091194426393	3
2	6353	66.091240426393	2
2	6365	66.102914426393	3
2	6372	66.102960426393	2
2	6382	66.113994426393	3
2	6389	66.114040426393	2
2	6399	66.130274426393	3
2	6406	66.130320426393	2
2	6415	66.138274426393	3
2	6422	66.138320426393	2
2	6545	70.923763359032	3
2	6555	70.923797359032	2
2	6579	70.923863814025	3
2	6591	70.923897814025	2
2	6608	70.977006426393	3
2	6615	70.977536426393	2
2	6633	70.977590871495	3
2	6643	70.977636871495	2
2	7005	75.977006426393	3
2	7013	75.977536426393	2
2	7022	75.978410426393	3
2	7030	75.978940426393	2
2	7039	75.980894426393	3
2	7046	75.981424426393	2
2	7055	75.982278426393	3
2	7062	75.982808426393	2
2	7071	75.985662426393	3
2	7079	75.986192426393	2
2	7090	75.991026426393	3
2	7098	75.991556426393	2
2	7129	76.007090426393	3
2	7136	76.007620426393	2
2	7145	76.007894426393	3
2	7152	76.007940426393	2
2	7161	76.008034426393	3
2	7168	76.008080426393	2
2	7177	76.009674426393	3
2	7184	76.009720426393	2
2	7193	76.010494426393	3
2	7200	76.010540426393	2
2	7209	76.014574426393	3
2	7216	76.014620426393	2
2	7231	76.032594426393	3
2	7238	76.032640426393	2
2	7248	76.051714426393	3
2	7255	76.051760426393	2
2	7525	80.977006426393	3
2	7532	80.977536426393	2
2	7593	80.993810426393	3
2	7600	80.994340426393	2
2	7646	81.011954426393	3
2	7653	81.012484426393	2
2	7664	81.028738426393	3
2	7671	81.029268426393	2
2	7680	81.031742426393	3
2	7687	81.032272426393	2
2	7698	81.048426426393	3
2	7705	81.048956426393	2
2	7714	81.049730426393	3
2	7721	81.050260426393	2
2	7732	81.065514426393	3
2	7739	81.065560426393	2
2	7748	81.071434426393	3
2	7755	81.071480426393	2
2	7764	81.074494426393	3
2	7771	81.074540426393	2
2	7781	81.080094426393	3
2	7788	81.080140426393	2
2	7799	81.084654426393	3
2	7806	81.084700426393	2
2	7816	81.091594426393	3
2	7823	81.091640426393	2
2	7836	81.101914426393	3
2	7843	81.101960426393	2
2	8027	85.977006426393	3
2	8034	85.977536426393	2
2	8076	85.990190426393	3
2	8091	85.990720426393	2
2	8110	85.999374426393	3
2	8117	85.999904426393	2
2	8164	86.019518426393	3
2	8171	86.020048426393	2
2	8198	86.033382426393	3
2	8205	86.033912426393	2
2	8249	86.053446426393	3
2	8257	86.053976426393	2
2	8266	86.055030426393	3
2	8273	86.055560426393	2
2	8282	86.057414426393	3
2	8289	86.057460426393	2
2	8316	86.066214426393	3
2	8323	86.066260426393	2
2	8333	86.068214426393	3
2	8340	86.068260426393	2
2	8350	86.071834426393	3
2	8357	86.071880426393	2
2	8384	86.080074426393	3
2	8391	86.080120426393	2
2	8401	86.084234426393	3
2	8408	86.084280426393	2
2	8422	86.101514426393	3
2	8429	86.101560426393	2
2	8551	90.923763263071	3
2	8561	90.923797263071	2
2	8585	90.923863526142	3
2	8597	90.923897526142	2
2	8614	90.977006426393	3
2	8621	90.977536426393	2
2	8639	90.977590679653	3
2	8649	90.977636679653	2
2	8959	95.977006426393	3
2	8980	95.977536426393	2
2	8991	95.977790426393	3
2	8998	95.978320426393	2
2	9007	95.979534426393	3
2	9014	95.980064426393	2
2	9039	95.982978426393	3
2	9047	95.983508426393	2
2	9062	95.990642426393	3
2	9069	95.991172426393	2
2	9079	95.993226426393	3
2	9087	95.993756426393	2
2	9117	96.011770426393	3
2	9124	96.012300426393	2
2	9133	96.012954426393	3
2	9140	96.013000426393	2
2	9149	96.013734426393	3
2	9156	96.013780426393	2
2	9165	96.014254426393	3
2	9172	96.014300426393	2
2	9197	96.015834426393	3
2	9204	96.015880426393	2
2	9217	96.025074426393	3
2	9224	96.025120426393	2
2	9235	96.026954426393	3
2	9242	96.027000426393	2
2	9251	96.027354426393	3
2	9258	96.027400426393	2
2	9446	100.977006426393	3
2	9453	100.977536426393	2
2	9496	100.996370426393	3
2	9503	100.996900426393	2
2	9531	101.005614426393	3
2	9538	101.006144426393	2
2	9549	101.015738426393	3
2	9557	101.016268426393	2
2	9582	101.022142426393	3
2	9589	101.022672426393	2
2	9634	101.042426426393	3
2	9641	101.042956426393	2
2	9667	101.047690426393	3
2	9674	101.048220426393	2
2	9686	101.060314426393	3
2	9693	101.060360426393	2
2	9720	101.073394426393	3
2	9727	101.073440426393	2
2	9753	101.084994426393	3
2	9760	101.085040426393	2
2	9787	101.095474426393	3
2	9794	101.095520426393	2
2	9805	101.100734426393	3
2	9812	101.100780426393	2
2	9821	101.103594426393	3
2	9828	101.103640426393	2
2	9839	101.107874426393	3
2	9846	101.107920426393	2
2	10082	105.977006426393	3
2	10089	105.977536426393	2
2	10115	105.986390426393	3
2	10122	105.986920426393	2
2	10169	106.003494426393	3
2	10176	106.004024426393	2
2	10203	106.019938426393	3
2	10210	106.020468426393	2
2	10219	106.026462426393	3
2	10226	106.026992426393	2
2	10255	106.038446426393	3
2	10262	106.038976426393	2
2	10287	106.047910426393	3
2	10294	106.048440426393	2
2	10322	106.067414426393	3
2	10329	106.067460426393	2
2	10340	106.084014426393	3
2	10347	106.084060426393	2
2	10357	106.094314426393	3
2	10364	106.094360426393	2
2	10376	106.114854426393	3
2	10383	106.114900426393	2
2	10393	106.130714426393	3
2	10400	106.130760426393	2
2	10410	106.149674426393	3
2	10417	106.149720426393	2
2	10427	106.166914426393	3
2	10434	106.166960426393	2
2	10556	110.923763361672	3
2	10566	110.923797361672	2
2	10590	110.923863821947	3
2	10602	110.923897821947	2
2	10619	110.977006426393	3
2	10626	110.977536426393	2
2	10644	110.977590876776	3
2	10654	110.977636876776	2
2	11002	115.977006426393	3
2	11009	115.977536426393	2
2	11018	115.978510426393	3
2	11041	115.979040426393	2
2	11050	115.979494426393	3
2	11057	115.980024426393	2
2	11066	115.985178426393	3
2	11073	115.985708426393	2
2	11101	115.993722426393	3
2	11108	115.994252426393	2
2	11122	116.008846426393	3
2	11129	116.009376426393	2
2	11139	116.029890426393	3
2	11146	116.030420426393	2
2	11155	116.031054426393	3
2	11162	116.031100426393	2
2	11171	116.032314426393	3
2	11178	116.032360426393	2
2	11187	116.034034426393	3
2	11194	116.034080426393	2
2	11203	116.038514426393	3
2	11210	116.038560426393	2
2	11222	116.043934426393	3
2	11229	116.043980426393	2
2	11241	116.058854426393	3
2	11248	116.058900426393	2
2	11258	116.074474426393	3
2	11265	116.074520426393	2
2	11467	120.977006426393	3
2	11474	120.977536426393	2
2	11501	120.992710426393	3
2	11508	120.993240426393	2
2	11534	120.999034426393	3
2	11557	120.999564426393	2
2	11603	121.019838426393	3
2	11610	121.020368426393	2
2	11638	121.031402426393	3
2	11645	121.031932426393	2
2	11655	121.035186426393	3
2	11662	121.035716426393	2
2	11722	121.051670426393	3
2	11729	121.052200426393	2
2	11741	121.066334426393	3
2	11748	121.066380426393	2
2	11757	121.074614426393	3
2	11764	121.074660426393	2
2	11774	121.082974426393	3
2	11781	121.083020426393	2
2	11790	121.083694426393	3
2	11797	121.083740426393	2
2	11811	121.102414426393	3
2	11818	121.102460426393	2
2	11827	121.109974426393	3
2	11834	121.110020426393	2
2	11845	121.126534426393	3
2	11852	121.126580426393	2
2	12053	125.977006426393	3
2	12060	125.977536426393	2
2	12086	125.995650426393	3
2	12093	125.996180426393	2
2	12105	126.003894426393	3
2	12120	126.004424426393	2
2	12172	126.023258426393	3
2	12179	126.023788426393	2
2	12207	126.044142426393	3
2	12214	126.044672426393	2
2	12239	126.047386426393	3
2	12246	126.047916426393	2
2	12259	126.059650426393	3
2	12266	126.060180426393	2
2	12292	126.071014426393	3
2	12299	126.071060426393	2
2	12309	126.077634426393	3
2	12316	126.077680426393	2
2	12361	126.097294426393	3
2	12368	126.097340426393	2
2	12380	126.116294426393	3
2	12387	126.116340426393	2
2	12397	126.129434426393	3
2	12404	126.129480426393	2
2	12413	126.134314426393	3
2	12420	126.134360426393	2
2	12430	126.141654426393	3
2	12437	126.141700426393	2
2	12560	130.923763257173	3
2	12570	130.923797257173	2
2	12594	130.923863508448	3
2	12606	130.923897508448	2
2	12623	130.977006426393	3
2	12630	130.977056426393	2
2	12657	130.977786667828	3
2	12668	130.977820667828	2
2	12679	130.996190667828	3
2	12686	130.996720667828	2
2	12704	130.996774906248	3
2	12714	130.996820906248	2
2	13042	135.977006426393	3
2	13050	135.977536426393	2
2	13059	135.977970426393	3
2	13082	135.978500426393	2
2	13092	135.979854426393	3
2	13099	135.980384426393	2
2	13124	135.983158426393	3
2	13132	135.983688426393	2
2	13141	135.986442426393	3
2	13148	135.986972426393	2
2	13182	136.003306426393	3
2	13189	136.003836426393	2
2	13198	136.004510426393	3
2	13205	136.005040426393	2
2	13214	136.005754426393	3
2	13221	136.005800426393	2
2	13230	136.006614426393	3
2	13237	136.006660426393	2
2	13246	136.008734426393	3
2	13253	136.008780426393	2
2	13262	136.010254426393	3
2	13269	136.010300426393	2
2	13278	136.013074426393	3
2	13285	136.013120426393	2
2	13294	136.013274426393	3
2	13301	136.013320426393	2
2	13314	136.017934426393	3
2	13321	136.017980426393	2
2	13544	140.977006426393	3
2	13552	140.977536426393	2
2	13611	140.996670426393	3
2	13618	140.997200426393	2
2	13665	141.015974426393	3
2	13672	141.016504426393	2
[...]
33	34050	355.969112131471	0
33	34056	355.973211131471	1
33	34070	355.973312131471	0
33	34127	355.982351131471	1
33	34141	355.982452131471	0
33	34440	360.923223131471	1
33	34453	360.923808131471	0
33	34457	360.939647131471	1
33	34470	360.940232131471	0
33	34473	360.945691131471	1
33	34486	360.946276131471	0
33	34491	360.959555131471	1
33	34504	360.960140131471	0
33	34507	360.962899131471	1
33	34520	360.963484131471	0
33	34562	360.983603131471	1
34	33726	350.977647088232	1
34	33727	350.977647088232	2
34	33737	350.977681088232	1
34	33738	350.977681088232	0
34	33855	355.923223131471	1
34	33856	355.923223131471	2
34	33861	355.923753131471	1
34	33862	355.923753131471	0
34	33871	355.924147131471	1
34	33872	355.924147131471	2
34	33877	355.924677131471	1
34	33878	355.924677131471	0
34	33887	355.926231131471	1
34	33888	355.926231131471	2
34	33893	355.926761131471	1
34	33894	355.926761131471	0
34	33903	355.927295131471	1
34	33904	355.927295131471	2
34	33909	355.927825131471	1
34	33910	355.927825131471	0
34	33919	355.933199131471	1
34	33920	355.933199131471	2
34	33925	355.933729131471	1
34	33926	355.933729131471	0
34	33940	355.946183131471	1
34	33941	355.946183131471	2
34	33946	355.946713131471	1
34	33947	355.946713131471	0
34	33957	355.959027131471	1
34	33958	355.959027131471	2
34	33963	355.959557131471	1
34	33964	355.959557131471	0
34	33973	355.960211131471	1
34	33974	355.960211131471	2
34	33979	355.960257131471	1
34	33980	355.960257131471	0
34	33989	355.960931131471	1
34	33990	355.960931131471	2
34	33995	355.960977131471	1
34	33996	355.960977131471	0
34	34005	355.963111131471	1
34	34006	355.963111131471	2
34	34011	355.963157131471	1
34	34012	355.963157131471	0
34	34021	355.965711131471	1
34	34022	355.965711131471	2
34	34027	355.965757131471	1
34	34028	355.965757131471	0
34	34037	355.969011131471	1
34	34038	355.969011131471	2
34	34043	355.969057131471	1
34	34044	355.969057131471	0
34	34057	355.973211131471	1
34	34058	355.973211131471	2
34	34063	355.973257131471	1
34	34064	355.973257131471	0
34	34128	355.982351131471	1
34	34129	355.982351131471	2
34	34134	355.982397131471	1
34	34135	355.982397131471	0
34	34441	360.923223131471	1
34	34442	360.923223131471	2
34	34447	360.923753131471	1
34	34448	360.923753131471	0
34	34458	360.939647131471	1
34	34459	360.939647131471	2
34	34464	360.940177131471	1
34	34465	360.940177131471	0
34	34474	360.945691131471	1
34	34475	360.945691131471	2
34	34480	360.946221131471	1
34	34481	360.946221131471	0
34	34492	360.959555131471	1
34	34493	360.959555131471	2
34	34498	360.960085131471	1
34	34499	360.960085131471	0
34	34508	360.962899131471	1
34	34509	360.962899131471	2
34	34514	360.963429131471	1
34	34515	360.963429131471	0
34	34563	360.983603131471	1
34	34564	360.983603131471	2
34	34569	360.984133131471	1
34	34570	360.984133131471	0
35	33737	350.977681088232	14
35	33861	355.923753131471	1500
35	33877	355.924677131471	1500
35	33893	355.926761131471	1500
35	33909	355.927825131471	1500
35	33925	355.933729131471	1500
35	33946	355.946713131471	1500
35	33963	355.959557131471	1500
35	33979	355.960257131471	46
35	33995	355.960977131471	46
35	34011	355.963157131471	46
35	34027	355.965757131471	46
35	34043	355.969057131471	46
35	34063	355.973257131471	46
35	34134	355.982397131471	46
35	34447	360.923753131471	1500
35	34464	360.940177131471	1500
35	34480	360.946221131471	1500
35	34498	360.960085131471	1500
35	34514	360.963429131471	1500
35	34569	360.984133131471	1500
38	33737	350.977681088232	14
38	33861	355.923753131471	1500
38	33979	355.960257131471	46
38	34447	360.923753131471	1500
39	33969	355.959612131471	0.036389
39	34141	355.982452131471	0.059229
40	34072	355.977006426393	1454
40	34524	360.977006426393	1454
41	34073	355.977006426393	1462
41	34525	360.977006426393	1462
43	34076	355.977006426393	1490
43	34528	360.977006426393	1490
44	34076	355.977006426393	1518
44	34528	360.977006426393	1518
45	34076	355.977006426393	1
45	34078	355.977006426393	0
45	34528	360.977006426393	1
45	34530	360.977006426393	0
46	34076	355.977006426393	28
46	34091	355.977591426393	7
46	34107	355.978455426393	51
46	34124	355.980199426393	244
46	34157	355.985803426393	73
46	34174	355.987987426393	471
46	34195	355.998131426393	960
46	34214	356.018055426393	16
46	34231	356.018615426393	17
46	34247	356.019095426393	40
46	34263	356.020035426393	243
46	34279	356.025035426393	21
46	34295	356.025595426393	606
46	34317	356.037855426393	922
46	34528	360.977006426393	797
46	34543	360.977591426393	195
46	34559	360.982215426393	455
47	34076	355.977006426393	1
47	34077	355.977006426393	0
47	34092	355.977680426393	1
47	34093	355.977870426393	0
47	34108	355.978544426393	1
47	34110	355.979614426393	0
47	34125	355.980288426393	1
47	34143	355.985218426393	0
47	34158	355.985892426393	1
47	34159	355.987402426393	0
47	34175	355.988076426393	1
47	34180	355.997546426393	0
47	34196	355.998220426393	1
47	34200	356.017470426393	0
47	34215	356.018144426393	1
47	34216	356.018514426393	0
47	34231	356.018615426393	1
47	34232	356.018994426393	0
47	34247	356.019095426393	1
47	34248	356.019934426393	0
47	34263	356.020035426393	1
47	34264	356.024934426393	0
47	34279	356.025035426393	1
47	34280	356.025494426393	0
47	34295	356.025595426393	1
47	34302	356.037754426393	0
47	34317	356.037855426393	1
47	34319	356.056334426393	0
47	34528	360.977006426393	1
47	34529	360.977006426393	0
47	34544	360.977680426393	1
47	34545	360.981630426393	0
47	34560	360.982304426393	1
48	34078	355.977006426393	1518
48	34530	360.977006426393	1518
49	34078	355.977006426393	0
49	34530	360.977006426393	0
50	33740	350.977681308821	0
50	34078	355.977006426393	1
50	34078	355.977006426393	2
50	34214	356.018055426393	1
50	34334	356.056435426393	0
50	34530	360.977006426393	1
50	34530	360.977006426393	2
51	34078	355.977006426393	24000000
51	34094	355.977870426393	24000000
51	34111	355.979614426393	24000000
51	34144	355.985218426393	24000000
51	34160	355.987402426393	24000000
51	34181	355.997546426393	24000000
51	34201	356.017470426393	24000000
51	34217	356.018514426393	24000000
51	34233	356.018994426393	24000000
51	34249	356.019934426393	24000000
51	34265	356.024934426393	24000000
51	34281	356.025494426393	24000000
51	34303	356.037754426393	24000000
51	34320	356.056334426393	24000000
51	34530	360.977006426393	24000000
51	34546	360.981630426393	24000000
52	34078	355.977006426393	1500
52	34094	355.977870426393	1500
52	34111	355.979614426393	1500
52	34144	355.985218426393	1500
52	34160	355.987402426393	1500
52	34181	355.997546426393	1500
52	34201	356.017470426393	1500
52	34217	356.018514426393	46
52	34233	356.018994426393	46
52	34249	356.019934426393	46
52	34265	356.024934426393	46
52	34281	356.025494426393	46
52	34303	356.037754426393	46
52	34320	356.056334426393	46
52	34530	360.977006426393	1500
52	34546	360.981630426393	1500
53	33740	350.977681308821	0
53	34078	355.977006426393	1
53	34091	355.977591426393	0
53	34094	355.977870426393	1
53	34107	355.978455426393	0
53	34111	355.979614426393	1
53	34124	355.980199426393	0
53	34144	355.985218426393	1
53	34157	355.985803426393	0
53	34160	355.987402426393	1
53	34174	355.987987426393	0
53	34181	355.997546426393	1
53	34195	355.998131426393	0
53	34201	356.017470426393	1
53	34214	356.018055426393	0
53	34217	356.018514426393	1
53	34231	356.018615426393	0
53	34233	356.018994426393	1
53	34247	356.019095426393	0
53	34249	356.019934426393	1
53	34263	356.020035426393	0
53	34265	356.024934426393	1
53	34279	356.025035426393	0
53	34281	356.025494426393	1
53	34295	356.025595426393	0
53	34303	356.037754426393	1
53	34317	356.037855426393	0
53	34320	356.056334426393	1
53	34334	356.056435426393	0
53	34530	360.977006426393	1
53	34543	360.977591426393	0
53	34546	360.981630426393	1
53	34559	360.982215426393	0
54	33715	350.977636867638	1
54	33716	350.977636867638	0
54	34079	355.977006426393	1
54	34080	355.977006426393	2
54	34085	355.977536426393	1
54	34086	355.977536426393	0
54	34095	355.977870426393	1
54	34096	355.977870426393	2
54	34101	355.978400426393	1
54	34102	355.978400426393	0
54	34112	355.979614426393	1
54	34113	355.979614426393	2
54	34118	355.980144426393	1
54	34119	355.980144426393	0
54	34145	355.985218426393	1
54	34146	355.985218426393	2
54	34151	355.985748426393	1
54	34152	355.985748426393	0
54	34161	355.987402426393	1
54	34162	355.987402426393	2
54	34168	355.987932426393	1
54	34169	355.987932426393	0
54	34182	355.997546426393	1
54	34183	355.997546426393	2
54	34189	355.998076426393	1
54	34190	355.998076426393	0
54	34202	356.017470426393	1
54	34203	356.017470426393	2
54	34208	356.018000426393	1
54	34209	356.018000426393	0
54	34218	356.018514426393	1
54	34219	356.018514426393	2
54	34224	356.018560426393	1
54	34225	356.018560426393	0
54	34234	356.018994426393	1
54	34235	356.018994426393	2
54	34240	356.019040426393	1
54	34241	356.019040426393	0
54	34250	356.019934426393	1
54	34251	356.019934426393	2
54	34256	356.019980426393	1
54	34257	356.019980426393	0
54	34266	356.024934426393	1
54	34267	356.024934426393	2
54	34272	356.024980426393	1
54	34273	356.024980426393	0
54	34282	356.025494426393	1
54	34283	356.025494426393	2
54	34288	356.025540426393	1
54	34289	356.025540426393	0
54	34304	356.037754426393	1
54	34305	356.037754426393	2
54	34310	356.037800426393	1
54	34311	356.037800426393	0
54	34321	356.056334426393	1
54	34322	356.056334426393	2
54	34327	356.056380426393	1
54	34328	356.056380426393	0
54	34531	360.977006426393	1
54	34532	360.977006426393	2
54	34537	360.977536426393	1
54	34538	360.977536426393	0
54	34547	360.981630426393	1
54	34548	360.981630426393	2
54	34553	360.982160426393	1
54	34554	360.982160426393	0
55	33715	350.977636867638	46
55	34085	355.977536426393	1500
55	34101	355.978400426393	1500
55	34118	355.980144426393	1500
55	34151	355.985748426393	1500
55	34168	355.987932426393	1500
55	34189	355.998076426393	1500
55	34208	356.018000426393	1500
55	34224	356.018560426393	46
55	34240	356.019040426393	46
55	34256	356.019980426393	46
55	34272	356.024980426393	46
55	34288	356.025540426393	46
55	34310	356.037800426393	46
55	34327	356.056380426393	46
55	34537	360.977536426393	1500
55	34553	360.982160426393	1500
58	33715	350.977636867638	46
58	34085	355.977536426393	1500
58	34224	356.018560426393	46
58	34537	360.977536426393	1500
59	33740	350.977681308821	0.000674882428
59	34214	356.018055426393	0.041049
59	34334	356.056435426393	0.079429
62	33740	350.977681308821	14
63	33740	350.977681308821	14
66	33740	350.977681308821	14
69	33715	350.977636867638	46
69	34085	355.977536426393	1500
69	34101	355.978400426393	1500
69	34118	355.980144426393	1500
69	34151	355.985748426393	1500
69	34168	355.987932426393	1500
69	34189	355.998076426393	1500
69	34208	356.018000426393	1500
69	34224	356.018560426393	46
69	34240	356.019040426393	46
69	34256	356.019980426393	46
69	34272	356.024980426393	46
69	34288	356.025540426393	46
69	34310	356.037800426393	46
69	34327	356.056380426393	46
69	34537	360.977536426393	1500
69	34553	360.982160426393	1500
70	33715	350.977636867638	4.3558755e-005
70	33715	350.977636867638	4.4e-005
70	33736	350.977680867638	0
70	34085	355.977536426393	0
70	34085	355.977536426393	0.000144
70	34092	355.977680426393	0
70	34101	355.978400426393	0
70	34101	355.978400426393	0.000144
70	34108	355.978544426393	0
70	34118	355.980144426393	0
70	34118	355.980144426393	0.000144
70	34125	355.980288426393	0
70	34151	355.985748426393	0
70	34151	355.985748426393	0.000144
70	34158	355.985892426393	0
70	34168	355.987932426393	0
70	34168	355.987932426393	0.000144
70	34175	355.988076426393	0
70	34189	355.998076426393	0
70	34189	355.998076426393	0.000144
70	34196	355.998220426393	0
70	34208	356.018000426393	0
70	34208	356.018000426393	0.000144
70	34215	356.018144426393	0
70	34224	356.018560426393	0
70	34224	356.018560426393	4.4e-005
70	34230	356.018604426393	0
70	34240	356.019040426393	0
70	34240	356.019040426393	4.4e-005
70	34246	356.019084426393	0
70	34256	356.019980426393	0
70	34256	356.019980426393	4.4e-005
70	34262	356.020024426393	0
70	34272	356.024980426393	0
70	34272	356.024980426393	4.4e-005
70	34278	356.025024426393	0
70	34288	356.025540426393	0
70	34288	356.025540426393	4.4e-005
70	34294	356.025584426393	0
70	34310	356.037800426393	0
70	34310	356.037800426393	4.4e-005
70	34316	356.037844426393	0
70	34327	356.056380426393	0
70	34327	356.056380426393	4.4e-005
70	34333	356.056424426393	0
70	34537	360.977536426393	0
70	34537	360.977536426393	0.000144
70	34544	360.977680426393	0
70	34553	360.982160426393	0
70	34553	360.982160426393	0.000144
70	34560	360.982304426393	0
71	33718	350.977637088232	46
72	33718	350.977637088232	46
73	33718	350.977637088232	46
74	33718	350.977637088232	46
75	33718	350.977637088232	1490
76	33737	350.977681088232	14
76	33861	355.923753131471	1500
76	33877	355.924677131471	1500
76	33893	355.926761131471	1500
76	33909	355.927825131471	1500
76	33925	355.933729131471	1500
76	33946	355.946713131471	1500
76	33963	355.959557131471	1500
76	33979	355.960257131471	46
76	33995	355.960977131471	46
76	34011	355.963157131471	46
76	34027	355.965757131471	46
76	34043	355.969057131471	46
76	34063	355.973257131471	46
76	34134	355.982397131471	46
76	34447	360.923753131471	1500
76	34464	360.940177131471	1500
76	34480	360.946221131471	1500
76	34498	360.960085131471	1500
76	34514	360.963429131471	1500
76	34569	360.984133131471	1500
77	33740	350.977681308821	14
78	33735	350.97768064704	0
78	33861	355.923753131471	0
78	33861	355.923753131471	0.000144
78	33868	355.923897131471	0
78	33877	355.924677131471	0
78	33877	355.924677131471	0.000144
78	33884	355.924821131471	0
78	33893	355.926761131471	0
78	33893	355.926761131471	0.000144
78	33900	355.926905131471	0
78	33909	355.927825131471	0
78	33909	355.927825131471	0.000144
78	33916	355.927969131471	0
78	33925	355.933729131471	0
78	33925	355.933729131471	0.000144
78	33933	355.933873131471	0
78	33946	355.946713131471	0
78	33946	355.946713131471	0.000144
78	33953	355.946857131471	0
78	33963	355.959557131471	0
78	33963	355.959557131471	0.000144
78	33970	355.959701131471	0
78	33979	355.960257131471	0
78	33979	355.960257131471	4.4e-005
78	33985	355.960301131471	0
78	33995	355.960977131471	0
78	33995	355.960977131471	4.4e-005
78	34001	355.961021131471	0
78	34011	355.963157131471	0
78	34011	355.963157131471	4.4e-005
78	34017	355.963201131471	0
78	34027	355.965757131471	0
78	34027	355.965757131471	4.4e-005
78	34033	355.965801131471	0
78	34043	355.969057131471	0
78	34043	355.969057131471	4.4e-005
78	34049	355.969101131471	0
78	34063	355.973257131471	0
78	34063	355.973257131471	4.4e-005
78	34069	355.973301131471	0
78	34134	355.982397131471	0
78	34134	355.982397131471	4.4e-005
78	34140	355.982441131471	0
78	34447	360.923753131471	0
78	34447	360.923753131471	0.000144
78	34454	360.923897131471	0
78	34464	360.940177131471	0
78	34464	360.940177131471	0.000144
78	34471	360.940321131471	0
78	34480	360.946221131471	0
78	34480	360.946221131471	0.000144
78	34487	360.946365131471	0
78	34498	360.960085131471	0
78	34498	360.960085131471	0.000144
78	34505	360.960229131471	0
78	34514	360.963429131471	0
78	34514	360.963429131471	0.000144
78	34521	360.963573131471	0
78	34569	360.984133131471	0
78	34569	360.984133131471	0.000144
85	33721	350.977637088232	1462
86	33721	350.977637088232	18
87	33723	350.977637088232	1454
88	33723	331	116320
88	33723	331.1	0
88	33723	331.2	0
88	33723	331.3	0
88	33723	331.4	0
88	33723	331.5	0
88	33723	331.6	0
88	33723	331.7	0
88	33723	331.8	0
88	33723	331.9	0
88	33723	332	0
88	33723	332.1	0
88	33723	332.2	0
88	33723	332.3	0
88	33723	332.4	0
88	33723	332.5	0
88	33723	332.6	0
88	33723	332.7	0
88	33723	332.8	0
88	33723	332.9	0
88	33723	333	0
88	33723	333.1	0
88	33723	333.2	0
88	33723	333.3	0
88	33723	333.4	0
88	33723	333.5	0
88	33723	333.6	0
88	33723	333.7	0
88	33723	333.8	0
88	33723	333.9	0
88	33723	334	0
88	33723	334.1	0
88	33723	334.2	0
88	33723	334.3	0
88	33723	334.4	0
88	33723	334.5	0
88	33723	334.6	0
88	33723	334.7	0
88	33723	334.8	0
88	33723	334.9	0
88	33723	335	0
88	33723	335.1	0
88	33723	335.2	0
88	33723	335.3	0
88	33723	335.4	0
88	33723	335.5	0
88	33723	335.6	0
88	33723	335.7	0
88	33723	335.8	0
88	33723	335.9	0
88	33723	336	0
88	33723	336.1	0
88	33723	336.2	0
88	33723	336.3	0
88	33723	336.4	0
88	33723	336.5	0
88	33723	336.6	0
88	33723	336.7	0
88	33723	336.8	0
88	33723	336.9	0
88	33723	337	0
88	33723	337.1	0
88	33723	337.2	0
88	33723	337.3	0
88	33723	337.4	0
88	33723	337.5	0
88	33723	337.6	0
88	33723	337.7	0
88	33723	337.8	0
88	33723	337.9	0
88	33723	338	0
88	33723	338.1	0
88	33723	338.2	0
88	33723	338.3	0
88	33723	338.4	0
88	33723	338.5	0
88	33723	338.6	0
88	33723	338.7	0
88	33723	338.8	0
88	33723	338.9	0
88	33723	339	0
88	33723	339.1	0
88	33723	339.2	0
88	33723	339.3	0
88	33723	339.4	0
88	33723	339.5	0
88	33723	339.6	0
88	33723	339.7	0
88	33723	339.8	0
88	33723	339.9	0
88	33723	340	0
88	33723	340.1	0
88	33723	340.2	0
88	33723	340.3	0
88	33723	340.4	0
88	33723	340.5	0
88	33723	340.6	0
88	33723	340.7	0
88	33723	340.8	0
88	33723	340.9	0
88	33723	341	0
88	33723	341.1	0
88	33723	341.2	0
88	33723	341.3	0
88	33723	341.4	0
88	33723	341.5	0
88	33723	341.6	0
88	33723	341.7	0
88	33723	341.8	0
88	33723	341.9	0
88	33723	342	0
88	33723	342.1	0
88	33723	342.2	0
88	33723	342.3	0
88	33723	342.4	0
88	33723	342.5	0
88	33723	342.6	0
88	33723	342.7	0
88	33723	342.8	0
88	33723	342.9	0
88	33723	343	0
88	33723	343.1	0
88	33723	343.2	0
88	33723	343.3	0
88	33723	343.4	0
88	33723	343.5	0
88	33723	343.6	0
88	33723	343.7	0
88	33723	343.8	0
88	33723	343.9	0
88	33723	344	0
88	33723	344.1	0
88	33723	344.2	0
88	33723	344.3	0
88	33723	344.4	0
88	33723	344.5	0
88	33723	344.6	0
88	33723	344.7	0
88	33723	344.8	0
88	33723	344.9	0
88	33723	345	0
88	33723	345.1	0
88	33723	345.2	0
88	33723	345.3	0
88	33723	345.4	0
88	33723	345.5	0
88	33723	345.6	0
88	33723	345.7	0
88	33723	345.8	0
88	33723	345.9	0
88	33723	346	0
88	33723	346.1	0
88	33723	346.2	0
88	33723	346.3	0
88	33723	346.4	0
88	33723	346.5	0
88	33723	346.6	0
88	33723	346.7	0
88	33723	346.8	0
88	33723	346.9	0
88	33723	347	0
88	33723	347.1	0
88	33723	347.2	0
88	33723	347.3	0
88	33723	347.4	0
88	33723	347.5	0
88	33723	347.6	0
88	33723	347.7	0
88	33723	347.8	0
88	33723	347.9	0
88	33723	348	0
88	33723	348.1	0
88	33723	348.2	0
88	33723	348.3	0
88	33723	348.4	0
88	33723	348.5	0
88	33723	348.6	0
88	33723	348.7	0
88	33723	348.8	0
88	33723	348.9	0
88	33723	349	0
88	33723	349.1	0
88	33723	349.2	0
88	33723	349.3	0
88	33723	349.4	0
88	33723	349.5	0
88	33723	349.6	0
88	33723	349.7	0
88	33723	349.8	0
88	33723	349.9	0
88	33723	350	0
88	33723	350.1	0
88	33723	350.2	0
88	33723	350.3	0
88	33723	350.4	0
88	33723	350.5	0
88	33723	350.6	0
88	33723	350.7	0
88	33723	350.8	0
88	33723	350.9	0
89	33723	350.977637088232	0.000630661839
90	33723	350.977637088232	70
91	33877	355.924677131471	1500
91	33893	355.926761131471	1500
91	33909	355.927825131471	1500
91	33925	355.933729131471	1500
91	33946	355.946713131471	1500
91	33963	355.959557131471	1500
91	33995	355.960977131471	46
91	34011	355.963157131471	46
91	34027	355.965757131471	46
91	34043	355.969057131471	46
91	34063	355.973257131471	46
91	34134	355.982397131471	46
91	34464	360.940177131471	1500
91	34480	360.946221131471	1500
91	34498	360.960085131471	1500
91	34514	360.963429131471	1500
91	34569	360.984133131471	1500
92	33969	355.959612131471	1500
92	34141	355.982452131471	46
93	33969	355.959612131471	1500
93	34141	355.982452131471	46
94	33969	355.959612131471	1500
94	34141	355.982452131471	46
95	33969	355.959612131471	1500
95	34141	355.982452131471	46
96	34101	355.978400426393	1500
96	34118	355.980144426393	1500
96	34151	355.985748426393	1500
96	34168	355.987932426393	1500
96	34189	355.998076426393	1500
96	34208	356.018000426393	1500
96	34240	356.019040426393	46
96	34256	356.019980426393	46
96	34272	356.024980426393	46
96	34288	356.025540426393	46
96	34310	356.037800426393	46
96	34327	356.056380426393	46
96	34553	360.982160426393	1500
97	34214	356.018055426393	1500
97	34334	356.056435426393	46
98	34214	356.018055426393	1500
98	34334	356.056435426393	46
99	34214	356.018055426393	1500
99	34334	356.056435426393	46
100	34214	356.018055426393	1500
100	34334	356.056435426393	46
