version 2
run Sim2drone-0-20210708-19:23:02-4604
attr configname Sim2drone
attr datetime 20210708-19:23:02
attr experiment Sim2drone
attr inifile mobilityDrones-omnetpp.ini
attr iterationvars ""
attr iterationvarsf ""
attr measurement ""
attr network mobilityDrones
attr processid 4604
attr repetition 0
attr replication #0
attr resultdir results
attr runnumber 0
attr seedset 0
param *.numUAVs 2
param *.drones[0].app[0].destAddresses "\"drones[1]\""
param *.drones[1].app[0].destAddresses "\"drones[0]\""
param *.drones[*].mobility.waypointFile "\"paths/mission.txt\""
param *.drones[*].app[*].timeoutDuration 5s
param *.drones[0].mobility.startTime 0s
param *.drones[1].mobility.startTime 40s
param *.drones[0].app[*].startTime "normal(0s, 1s)"
param *.drones[1].app[*].startTime "normal(40s, 1s)"
param *.visualizer.osgVisualizer.typename "\"IntegratedOsgVisualizer\""
param *.visualizer.osgVisualizer.sceneVisualizer.typename "\"SceneOsgEarthVisualizer\""
param *.visualizer.osgVisualizer.sceneVisualizer.mapFile "\"map.earth\""
param *.visualizer.osgVisualizer.sceneVisualizer.sceneImageSize 10000m
param *.visualizer.osgVisualizer.sceneVisualizer.axisLength 500m
param *.visualizer.osgVisualizer.sceneVisualizer.sceneMinX -200m
param *.visualizer.osgVisualizer.sceneVisualizer.sceneMinY -200m
param *.visualizer.osgVisualizer.sceneVisualizer.sceneMinZ 0m
param *.visualizer.osgVisualizer.sceneVisualizer.sceneMaxX 5000m
param *.visualizer.osgVisualizer.sceneVisualizer.sceneMaxY 5000m
param *.visualizer.osgVisualizer.sceneVisualizer.sceneMaxZ 5000m
param *.visualizer.osgVisualizer.networkNodeVisualizer.displayModuleName true
param *.visualizer.*.mobilityVisualizer.displayMobility true
param *.visualizer.*.mobilityVisualizer.displayPositions true
param *.visualizer.*.mobilityVisualizer.displayOrientations true
param *.visualizer.*.mobilityVisualizer.displayVelocities true
param *.visualizer.*.mobilityVisualizer.displayMovementTrails true
param *.visualizer.*.mobilityVisualizer.animationSpeed 10
param *.visualizer.mediumVisualizer.displaySignals true
param **.constraintAreaMinX -5000m
param **.constraintAreaMinY -5000m
param **.constraintAreaMinZ -100m
param **.constraintAreaMaxX 5000m
param **.constraintAreaMaxY 5000m
param **.constraintAreaMaxZ 5000m
param *.drones*.wlan[0].radio.displayCommunicationRange true
param *.coordinateSystem.sceneLongitude -47.926634deg
param *.coordinateSystem.sceneLatitude -15.840075deg
param *.coordinateSystem.sceneHeading 90deg
param *.environment.ground.typename "\"FlatGround\""
param *.drones[*].osgModel "\"3d/drone.ive.80.scale.0,0,90.rot\""
param *.drones[*].mobility.coordinateSystemModule "\"coordinateSystem\""
param *.drones[*].mobility.waypointFile "\"paths/gradys-vai-e-volta-descendo-5s-v1.txt\""
param *.drones[*].mobility.waypointProximity 1m
param **.mobility.initFromDisplayString false
param *.drones[*].mobility.speed 10mps
param *.drones[*].numApps 1
param *.drones[*].app[0].typename "\"UdpMobileNodeCommunicationApp\""
param *.drones[*].app[0].localPort 1000
param *.drones[*].app[0].destPort 1000
param *.drones[*].app[0].sendInterval 1s
param *.drones[*].app[0].startTime 1s
param *.drones[*].app[0].stopTime -1s
param *.drones[*].app[0].messageLength 1454Byte
param *.drones[*].app[0].packetName "\"UAV-DEFAULT-PAYLOAD\""
param *.sensor.mobility.typename "\"StationaryMobility\""
param *.sensor*.mobility.coordinateSystemModule "\"\""

vector 0 mobilityDrones.drones[0].wlan[0].radio radioMode:vector ETV
attr interpolationmode sample-hold
attr source radioModeChanged
attr title "Radio mode, vector"
vector 1 mobilityDrones.drones[0].wlan[0].radio radioChannel:vector ETV
attr interpolationmode sample-hold
attr source radioChannelChanged
attr title "Radio channel, vector"
vector 2 mobilityDrones.drones[1].wlan[0].radio radioMode:vector ETV
attr interpolationmode sample-hold
attr source radioModeChanged
attr title "Radio mode, vector"
vector 3 mobilityDrones.drones[1].wlan[0].radio radioChannel:vector ETV
attr interpolationmode sample-hold
attr source radioChannelChanged
attr title "Radio channel, vector"
vector 4 mobilityDrones.drones[0].wlan[0].radio receptionState:vector ETV
attr interpolationmode sample-hold
attr source receptionStateChanged
attr title "Radio reception state, vector"
vector 5 mobilityDrones.drones[1].wlan[0].radio receptionState:vector ETV
attr interpolationmode sample-hold
attr source receptionStateChanged
attr title "Radio reception state, vector"
vector 6 mobilityDrones.drones[0].wlan[0].mac.dcf.recoveryProcedure contentionWindowChanged:vector ETV
attr interpolationmode sample-hold
attr title "contention window, vector"
vector 7 mobilityDrones.drones[1].wlan[0].mac.dcf.recoveryProcedure contentionWindowChanged:vector ETV
attr interpolationmode sample-hold
attr title "contention window, vector"
vector 8 mobilityDrones.drones[0].app[0] packetSent:vector(packetBytes) ETV
attr interpolationmode none
attr source packetSent
attr title "packets sent, vector(packetBytes)"
vector 9 mobilityDrones.drones[0].udp packetSent:vector(packetBytes) ETV
attr interpolationmode none
attr source packetSent
attr title "packets sent, vector(packetBytes)"
vector 10 mobilityDrones.drones[0].ipv4.arp arpRequestSent:vector(packetBytes) ETV
attr source arpRequestSent
attr title "ARP request sent, vector(packetBytes)"
vector 11 mobilityDrones.drones[0].wlan[0].mac packetReceivedFromUpper:vector(packetBytes) ETV
attr interpolationmode none
attr title "packets received from upper layer, vector(packetBytes)"
vector 12 mobilityDrones.drones[0].wlan[0].mac.dcf.channelAccess.pendingQueue packetPushed:vector(packetBytes) ETV
attr interpolationmode none
attr title "packet pushed, vector(packetBytes)"
vector 13 mobilityDrones.drones[0].wlan[0].mac.dcf.channelAccess.pendingQueue queueLength:vector ETV
attr interpolationmode sample-hold
attr source "count(packetPushed) - count(packetPopped) - count(packetRemoved) - count(packetDropped)"
attr title "queue length, vector"
vector 14 mobilityDrones.drones[0].wlan[0].mac.dcf.channelAccess.contention backoffPeriodGenerated:vector ETV
attr interpolationmode none
attr title "backoff periods, vector"
vector 15 mobilityDrones.drones[0].wlan[0].mac.dcf.channelAccess.contention backoffActive:vector ETV
attr interpolationmode sample-hold
attr source count(backoffStarted)-count(backoffStopped)
attr title "backoff active, vector"
vector 16 mobilityDrones.drones[0].wlan[0].mac.dcf.channelAccess.pendingQueue packetPopped:vector(packetBytes) ETV
attr interpolationmode none
attr title "packet popped, vector(packetBytes)"
vector 17 mobilityDrones.drones[0].wlan[0].mac.dcf.channelAccess.pendingQueue queueingTime:vector ETV
attr interpolationmode none
attr source queueingTime(packetPopped)
attr title "queueing times, vector"
attr unit s
vector 18 mobilityDrones.drones[0].wlan[0].mac.dcf.channelAccess.inProgressFrames queueLength:vector ETV
attr interpolationmode sample-hold
attr source "count(packetEnqueued) - count(packetDequeued)"
attr title "queue length, vector"
vector 19 mobilityDrones.drones[0].wlan[0].mac.dcf datarateSelected:vector ETV
attr interpolationmode none
attr title "datarates selected, vector"
vector 20 mobilityDrones.drones[0].wlan[0].mac packetSentToLower:vector(packetBytes) ETV
attr interpolationmode none
attr title "packets sent to lower layer, vector(packetBytes)"
vector 21 mobilityDrones.drones[0].wlan[0].mac.dcf frameSequenceActive:vector ETV
attr interpolationmode sample-hold
attr source count(frameSequenceStarted)-count(frameSequenceFinished)
attr title "frame sequence active, vector"
vector 22 mobilityDrones.drones[0].wlan[0].radio transmissionState:vector ETV
attr interpolationmode sample-hold
attr source transmissionStateChanged
attr title "Radio transmission state, vector"
vector 23 mobilityDrones.drones[0].wlan[0].mac.dcf packetSentToPeer:vector(packetBytes) ETV
attr interpolationmode none
attr title "packets sent, vector(packetBytes)"
vector 24 mobilityDrones.drones[0].wlan[0].mac.dcf packetSentToPeerMulticast:vector(packetBytes) ETV
attr interpolationmode none
attr source ieee80211Multicast(packetSentToPeer)
attr title "packets sent: multicast, vector(packetBytes)"
vector 25 mobilityDrones.drones[0].wlan[0].mac.dcf packetSentToPeerBroadcast:vector(packetBytes) ETV
attr interpolationmode none
attr source ieee80211Broadcast(packetSentToPeer)
attr title "packets sent: broadcast , vector(packetBytes)"
vector 26 mobilityDrones.drones[0].wlan[0].mac.dcf packetSentToPeerWithoutRetry:vector(packetBytes) ETV
attr interpolationmode none
attr source ieee80211NotRetry(packetSentToPeer)
attr title "packets sent: without retry, vector(packetBytes)"
vector 27 mobilityDrones.drones[0].wlan[0].mac.dcf.channelAccess.inProgressFrames queueingTime:vector ETV
attr interpolationmode none
attr source queueingTime(packetDequeued)
attr title "queueing times, vector"
vector 28 mobilityDrones.drones[1].wlan[0].mac packetReceivedFromLower:vector(packetBytes) ETV
attr interpolationmode none
attr title "packets received from lower layer, vector(packetBytes)"
vector 29 mobilityDrones.drones[1].wlan[0].mac.dcf packetReceivedFromPeer:vector(packetBytes) ETV
attr interpolationmode none
attr title "packets received, vector(packetBytes)"
vector 30 mobilityDrones.drones[1].wlan[0].mac.dcf packetReceivedFromPeerMulticast:vector(packetBytes) ETV
attr interpolationmode none
attr source ieee80211Multicast(packetReceivedFromPeer)
attr title "packets received: multicast, vector(packetBytes)"
vector 31 mobilityDrones.drones[1].wlan[0].mac.dcf packetReceivedFromPeerBroadcast:vector(packetBytes) ETV
attr interpolationmode none
attr source ieee80211Broadcast(packetReceivedFromPeer)
attr title "packets received: broadcast, vector(packetBytes)"
vector 32 mobilityDrones.drones[1].wlan[0].mac.dcf packetReceivedFromPeerWithoutRetry:vector(packetBytes) ETV
attr interpolationmode none
attr source ieee80211NotRetry(packetReceivedFromPeer)
attr title "packets received: without retry, vector(packetBytes)"
vector 33 mobilityDrones.drones[1].wlan[0].mac packetSentToUpper:vector(packetBytes) ETV
attr interpolationmode none
attr title "packets sent to upper layer, vector(packetBytes)"
vector 34 mobilityDrones.drones[1].ipv4.arp arpReplySent:vector(packetBytes) ETV
attr source arpReplySent
attr title "ARP replies sent, vector(packetBytes)"
vector 35 mobilityDrones.drones[1].wlan[0].mac packetReceivedFromUpper:vector(packetBytes) ETV
attr interpolationmode none
attr title "packets received from upper layer, vector(packetBytes)"
vector 36 mobilityDrones.drones[1].wlan[0].mac.dcf.channelAccess.pendingQueue packetPushed:vector(packetBytes) ETV
attr interpolationmode none
attr title "packet pushed, vector(packetBytes)"
vector 37 mobilityDrones.drones[1].wlan[0].mac.dcf.channelAccess.pendingQueue queueLength:vector ETV
attr interpolationmode sample-hold
attr source "count(packetPushed) - count(packetPopped) - count(packetRemoved) - count(packetDropped)"
attr title "queue length, vector"
vector 38 mobilityDrones.drones[1].wlan[0].mac.dcf.channelAccess.contention backoffPeriodGenerated:vector ETV
attr interpolationmode none
attr title "backoff periods, vector"
vector 39 mobilityDrones.drones[1].wlan[0].mac.dcf.channelAccess.contention backoffActive:vector ETV
attr interpolationmode sample-hold
attr source count(backoffStarted)-count(backoffStopped)
attr title "backoff active, vector"
vector 40 mobilityDrones.drones[1].wlan[0].mac.dcf.channelAccess.pendingQueue packetPopped:vector(packetBytes) ETV
attr interpolationmode none
attr title "packet popped, vector(packetBytes)"
vector 41 mobilityDrones.drones[1].wlan[0].mac.dcf.channelAccess.pendingQueue queueingTime:vector ETV
attr interpolationmode none
attr source queueingTime(packetPopped)
attr title "queueing times, vector"
attr unit s
vector 42 mobilityDrones.drones[1].wlan[0].mac.dcf.channelAccess.inProgressFrames queueLength:vector ETV
attr interpolationmode sample-hold
attr source "count(packetEnqueued) - count(packetDequeued)"
attr title "queue length, vector"
vector 43 mobilityDrones.drones[1].wlan[0].mac.dcf datarateSelected:vector ETV
attr interpolationmode none
attr title "datarates selected, vector"
vector 44 mobilityDrones.drones[1].wlan[0].mac packetSentToLower:vector(packetBytes) ETV
attr interpolationmode none
attr title "packets sent to lower layer, vector(packetBytes)"
vector 45 mobilityDrones.drones[1].wlan[0].mac.dcf frameSequenceActive:vector ETV
attr interpolationmode sample-hold
attr source count(frameSequenceStarted)-count(frameSequenceFinished)
attr title "frame sequence active, vector"
vector 46 mobilityDrones.drones[1].wlan[0].radio transmissionState:vector ETV
attr interpolationmode sample-hold
attr source transmissionStateChanged
attr title "Radio transmission state, vector"
vector 47 mobilityDrones.drones[1].wlan[0].mac.dcf packetSentToPeer:vector(packetBytes) ETV
attr interpolationmode none
attr title "packets sent, vector(packetBytes)"
vector 48 mobilityDrones.drones[1].wlan[0].mac.dcf packetSentToPeerUnicast:vector(packetBytes) ETV
attr interpolationmode none
attr source ieee80211Unicast(packetSentToPeer)
attr title "packets sent: unicast, vector(packetBytes)"
vector 49 mobilityDrones.drones[1].wlan[0].mac.dcf packetSentToPeerWithoutRetry:vector(packetBytes) ETV
attr interpolationmode none
attr source ieee80211NotRetry(packetSentToPeer)
attr title "packets sent: without retry, vector(packetBytes)"
vector 50 mobilityDrones.drones[1].wlan[0].mac.rx nav:vector ETV
attr interpolationmode linear
attr source navChanged
attr title "network allocation vector, vector"
vector 51 mobilityDrones.drones[0].wlan[0].mac packetReceivedFromLower:vector(packetBytes) ETV
attr interpolationmode none
attr title "packets received from lower layer, vector(packetBytes)"
vector 52 mobilityDrones.drones[0].wlan[0].mac.dcf packetReceivedFromPeer:vector(packetBytes) ETV
attr interpolationmode none
attr title "packets received, vector(packetBytes)"
vector 53 mobilityDrones.drones[0].wlan[0].mac.dcf packetReceivedFromPeerUnicast:vector(packetBytes) ETV
attr interpolationmode none
attr source ieee80211Unicast(packetReceivedFromPeer)
attr title "packets received: unicast, vector(packetBytes)"
vector 54 mobilityDrones.drones[0].wlan[0].mac.dcf packetReceivedFromPeerWithoutRetry:vector(packetBytes) ETV
attr interpolationmode none
attr source ieee80211NotRetry(packetReceivedFromPeer)
attr title "packets received: without retry, vector(packetBytes)"
vector 55 mobilityDrones.drones[0].wlan[0].mac packetSentToUpper:vector(packetBytes) ETV
attr interpolationmode none
attr title "packets sent to upper layer, vector(packetBytes)"
vector 56 mobilityDrones.drones[0].wlan[0].mac.dcf packetSentToPeerUnicast:vector(packetBytes) ETV
attr interpolationmode none
attr source ieee80211Unicast(packetSentToPeer)
attr title "packets sent: unicast, vector(packetBytes)"
vector 57 mobilityDrones.drones[1].wlan[0].mac.dcf packetReceivedFromPeerUnicast:vector(packetBytes) ETV
attr interpolationmode none
attr source ieee80211Unicast(packetReceivedFromPeer)
attr title "packets received: unicast, vector(packetBytes)"
vector 58 mobilityDrones.drones[1].wlan[0].mac.dcf.channelAccess.inProgressFrames queueingTime:vector ETV
attr interpolationmode none
attr source queueingTime(packetDequeued)
attr title "queueing times, vector"
vector 59 mobilityDrones.drones[0].wlan[0].mac.rx nav:vector ETV
attr interpolationmode linear
attr source navChanged
attr title "network allocation vector, vector"
vector 60 mobilityDrones.drones[1].udp packetReceived:vector(packetBytes) ETV
attr interpolationmode none
attr source packetReceived
attr title "packets received, vector(packetBytes)"
vector 61 mobilityDrones.drones[1].udp droppedPkWrongPort:vector(count) ETV
attr interpolationmode none
attr source packetDropReasonIsNoPortFound(packetDropped)
attr title "packets dropped (wrong port), vector(count)"
vector 62 mobilityDrones.drones[0].wlan[0].mac.dcf packetSentToPeerWithRetry:vector(packetBytes) ETV
attr interpolationmode none
attr source ieee80211Retry(packetSentToPeer)
attr title "packets sent: with retry, vector(packetBytes)"
vector 63 mobilityDrones.drones[0].wlan[0].mac.dcf packetDrop:vector(packetBytes) ETV
attr interpolationmode none
attr source packetDropped
attr title "packet drops, vector(packetBytes)"
vector 64 mobilityDrones.drones[0].wlan[0].mac.dcf packetDropRetryLimitReached:vector(packetBytes) ETV
attr interpolationmode none
attr source packetDropReasonIsRetryLimitReached(packetDropped)
attr title "packet drops: retry limit reached, vector(packetBytes)"
vector 65 mobilityDrones.drones[0].wlan[0].mac packetDrop:vector(packetBytes) ETV
attr interpolationmode none
attr source packetDropped
attr title "packet drops, vector(packetBytes)"
vector 66 mobilityDrones.drones[0].wlan[0].mac packetDropRetryLimitReached:vector(packetBytes) ETV
attr interpolationmode none
attr source packetDropReasonIsRetryLimitReached(packetDropped)
attr title "packet drops: retry limit reached, vector(packetBytes)"
vector 67 mobilityDrones.drones[1].app[0] packetSent:vector(packetBytes) ETV
attr interpolationmode none
attr source packetSent
attr title "packets sent, vector(packetBytes)"
vector 68 mobilityDrones.drones[1].udp packetSent:vector(packetBytes) ETV
attr interpolationmode none
attr source packetSent
attr title "packets sent, vector(packetBytes)"
vector 69 mobilityDrones.drones[1].wlan[0].mac.dcf packetSentToPeerWithRetry:vector(packetBytes) ETV
attr interpolationmode none
attr source ieee80211Retry(packetSentToPeer)
attr title "packets sent: with retry, vector(packetBytes)"
vector 70 mobilityDrones.drones[1].wlan[0].mac.dcf packetDrop:vector(packetBytes) ETV
attr interpolationmode none
attr source packetDropped
attr title "packet drops, vector(packetBytes)"
vector 71 mobilityDrones.drones[1].wlan[0].mac.dcf packetDropRetryLimitReached:vector(packetBytes) ETV
attr interpolationmode none
attr source packetDropReasonIsRetryLimitReached(packetDropped)
attr title "packet drops: retry limit reached, vector(packetBytes)"
vector 72 mobilityDrones.drones[1].wlan[0].mac packetDrop:vector(packetBytes) ETV
attr interpolationmode none
attr source packetDropped
attr title "packet drops, vector(packetBytes)"
vector 73 mobilityDrones.drones[1].wlan[0].mac packetDropRetryLimitReached:vector(packetBytes) ETV
attr interpolationmode none
attr source packetDropReasonIsRetryLimitReached(packetDropped)
attr title "packet drops: retry limit reached, vector(packetBytes)"
vector 74 mobilityDrones.drones[1].ipv4.arp arpRequestSent:vector(packetBytes) ETV
attr source arpRequestSent
attr title "ARP request sent, vector(packetBytes)"
vector 75 mobilityDrones.drones[1].wlan[0].mac.dcf packetSentToPeerMulticast:vector(packetBytes) ETV
attr interpolationmode none
attr source ieee80211Multicast(packetSentToPeer)
attr title "packets sent: multicast, vector(packetBytes)"
vector 76 mobilityDrones.drones[1].wlan[0].mac.dcf packetSentToPeerBroadcast:vector(packetBytes) ETV
attr interpolationmode none
attr source ieee80211Broadcast(packetSentToPeer)
attr title "packets sent: broadcast , vector(packetBytes)"
vector 77 mobilityDrones.drones[1].ipv4.ip packetDropAddressResolutionFailed:vector(packetBytes) ETV
attr interpolationmode none
attr source packetDropReasonIsAddressResolutionFailed(packetDropped)
attr title "packet drop: address resolution failed, vector(packetBytes)"
vector 78 mobilityDrones.drones[0].ipv4.ip packetDropAddressResolutionFailed:vector(packetBytes) ETV
attr interpolationmode none
attr source packetDropReasonIsAddressResolutionFailed(packetDropped)
attr title "packet drop: address resolution failed, vector(packetBytes)"
vector 79 mobilityDrones.drones[0].wlan[0].mac.dcf packetReceivedFromPeerMulticast:vector(packetBytes) ETV
attr interpolationmode none
attr source ieee80211Multicast(packetReceivedFromPeer)
attr title "packets received: multicast, vector(packetBytes)"
vector 80 mobilityDrones.drones[0].wlan[0].mac.dcf packetReceivedFromPeerBroadcast:vector(packetBytes) ETV
attr interpolationmode none
attr source ieee80211Broadcast(packetReceivedFromPeer)
attr title "packets received: broadcast, vector(packetBytes)"
vector 81 mobilityDrones.drones[0].ipv4.arp arpReplySent:vector(packetBytes) ETV
attr source arpReplySent
attr title "ARP replies sent, vector(packetBytes)"
vector 82 mobilityDrones.drones[1].udp passedUpPk:vector(count) ETV
attr interpolationmode none
attr source packetSentToUpper
attr title "packets passed up, vector(count)"
vector 83 mobilityDrones.drones[1].app[0] packetReceived:vector(packetBytes) ETV
attr interpolationmode none
attr source packetReceived
attr title "packets received, vector(packetBytes)"
vector 84 mobilityDrones.drones[1].app[0] throughput:vector ETV
attr source throughput(packetReceived)
attr title "throughput, vector"
attr unit bps
vector 85 mobilityDrones.drones[1].app[0] rcvdPkLifetime:vector ETV
attr interpolationmode none
attr source dataAge(packetReceived)
attr title "received packet lifetime, vector"
attr unit s
vector 86 mobilityDrones.drones[0].wlan[0].mac packetDropIncorrectlyReceived:vector(packetBytes) ETV
attr interpolationmode none
attr source packetDropReasonIsIncorrectlyReceived(packetDropped)
attr title "packet drops: incorrectly received, vector(packetBytes)"
vector 87 mobilityDrones.drones[1].wlan[0].mac.dcf packetReceivedFromPeerWithRetry:vector(packetBytes) ETV
attr interpolationmode none
attr source ieee80211Retry(packetReceivedFromPeer)
attr title "packets received: with retry, vector(packetBytes)"
vector 88 mobilityDrones.drones[1].wlan[0].mac.dcf.recipientMacDataService packetDropDuplicateDetected:vector(packetBytes) ETV
attr interpolationmode none
attr source packetDropReasonIsDuplicateDetected(packetDropped)
attr title "packet drops: duplicate detected, vector(packetBytes)"
vector 89 mobilityDrones.drones[1].wlan[0].mac packetDropDuplicateDetected:vector(packetBytes) ETV
attr interpolationmode none
attr source packetDropReasonIsDuplicateDetected(packetDropped)
attr title "packet drops: duplicate detected, vector(packetBytes)"
vector 90 mobilityDrones.drones[1].wlan[0].mac packetDropIncorrectlyReceived:vector(packetBytes) ETV
attr interpolationmode none
attr source packetDropReasonIsIncorrectlyReceived(packetDropped)
attr title "packet drops: incorrectly received, vector(packetBytes)"
vector 91 mobilityDrones.drones[0].udp packetReceived:vector(packetBytes) ETV
attr interpolationmode none
attr source packetReceived
attr title "packets received, vector(packetBytes)"
vector 92 mobilityDrones.drones[0].udp passedUpPk:vector(count) ETV
attr interpolationmode none
attr source packetSentToUpper
attr title "packets passed up, vector(count)"
vector 93 mobilityDrones.drones[0].app[0] packetReceived:vector(packetBytes) ETV
attr interpolationmode none
attr source packetReceived
attr title "packets received, vector(packetBytes)"
vector 94 mobilityDrones.drones[0].app[0] throughput:vector ETV
attr source throughput(packetReceived)
attr title "throughput, vector"
attr unit bps
vector 95 mobilityDrones.drones[0].app[0] rcvdPkLifetime:vector ETV
attr interpolationmode none
attr source dataAge(packetReceived)
attr title "received packet lifetime, vector"
attr unit s
vector 96 mobilityDrones.drones[0].wlan[0].mac.dcf packetReceivedFromPeerWithRetry:vector(packetBytes) ETV
attr interpolationmode none
attr source ieee80211Retry(packetReceivedFromPeer)
attr title "packets received: with retry, vector(packetBytes)"
vector 97 mobilityDrones.drones[0].wlan[0].mac.dcf.recipientMacDataService packetDropDuplicateDetected:vector(packetBytes) ETV
attr interpolationmode none
attr source packetDropReasonIsDuplicateDetected(packetDropped)
attr title "packet drops: duplicate detected, vector(packetBytes)"
vector 98 mobilityDrones.drones[0].wlan[0].mac packetDropDuplicateDetected:vector(packetBytes) ETV
attr interpolationmode none
attr source packetDropReasonIsDuplicateDetected(packetDropped)
attr title "packet drops: duplicate detected, vector(packetBytes)"
0	0	0	0
0	0	0	0
0	0	0	2
0	9	0.00041	3
0	14	0.00046	2
0	34	0.000650000004	3
0	39	0.000684000004	2
0	44	0.001194000004	3
0	48	0.001248000004	2
0	81	0.001530000061	3
0	86	0.001564000061	2
0	114	1	3
0	118	1.000054	2
0	151	1.000456066695	3
0	156	1.000490066695	2
0	180	2	3
0	184	2.000054	2
0	217	2.000336133403	3
0	222	2.000370133403	2
0	246	3	3
0	250	3.000054	2
0	283	3.000496200122	3
0	288	3.000530200122	2
0	312	4	3
0	316	4.000054	2
0	349	4.000316266829	3
0	354	4.000350266829	2
0	378	5	3
0	382	5.000054	2
0	415	5.000376333544	3
0	420	5.000410333544	2
0	444	6	3
0	448	6.000054	2
0	481	6.000596338897	3
0	486	6.000630338897	2
0	510	7	3
0	514	7.000054	2
0	547	7.000316356335	3
0	552	7.000350356335	2
0	576	8	3
0	580	8.000054	2
0	613	8.000516384713	3
0	618	8.000550384713	2
0	642	9	3
0	646	9.000054	2
0	679	9.000276421815	3
0	684	9.000310421815	2
0	708	10	3
0	712	10.000054	2
0	745	10.000596465578	3
0	750	10.000630465578	2
0	774	11	3
0	778	11.000054	2
0	811	11.00059651429	3
0	816	11.00063051429	2
0	840	12	3
0	844	12.000054	2
0	877	12.00023656667	3
0	882	12.00027056667	2
0	906	13	3
0	910	13.000054	2
0	943	13.00061662182	3
0	948	13.00065062182	2
0	972	14	3
0	976	14.000054	2
0	1009	14.000776679045	3
0	1014	14.000810679045	2
0	1038	15	3
0	1042	15.000054	2
0	1075	15.000336737848	3
0	1080	15.000370737848	2
0	1104	16	3
0	1108	16.000054	2
0	1141	16.000416797909	3
0	1146	16.000450797909	2
0	1170	17	3
0	1174	17.000054	2
0	1180	17.000928	3
0	1184	17.000982	2
0	1190	17.001896	3
0	1194	17.00195	2
0	1200	17.003184	3
0	1204	17.003238	2
0	1210	17.009152	3
0	1214	17.009206	2
0	1225	17.0267	3
0	1229	17.026754	2
0	1235	17.029228	3
0	1239	17.029282	2
0	1262	18	3
0	1266	18.000054	2
0	1272	18.000508	3
0	1276	18.000562	2
0	1282	18.002476	3
0	1286	18.00253	2
0	1292	18.005184	3
0	1296	18.005238	2
0	1305	18.013292	3
0	1309	18.013346	2
0	1317	18.02566	3
0	1321	18.025714	2
0	1328	18.037108	3
0	1332	18.037162	2
0	1354	19	3
0	1358	19.000054	2
0	1365	19.018908	3
0	1369	19.018962	2
0	1375	19.020736	3
0	1379	19.02079	2
0	1385	19.024944	3
0	1389	19.024998	2
0	1397	19.031572	3
0	1401	19.031626	2
0	1409	19.0472	3
0	1413	19.047254	2
0	1420	19.066628	3
0	1424	19.066682	2
0	1446	20	3
0	1450	20.000054	2
0	1457	20.020388	3
0	1461	20.020442	2
0	1467	20.023156	3
0	1471	20.02321	2
0	1479	20.042744	3
0	1483	20.042798	2
0	1490	20.060252	3
0	1494	20.060306	2
0	1500	20.064	3
0	1504	20.064054	2
0	1512	20.084148	3
0	1516	20.084202	2
0	1538	21	3
0	1542	21.000054	2
0	1549	21.013348	3
0	1553	21.013402	2
0	1559	21.018036	3
0	1563	21.01809	2
0	1571	21.037264	3
0	1575	21.037318	2
0	1582	21.053232	3
0	1586	21.053286	2
0	1593	21.06776	3
0	1597	21.067814	2
0	1604	21.086088	3
0	1608	21.086142	2
0	1630	22	3
0	1634	22.000054	2
0	1641	22.011348	3
0	1645	22.011402	2
0	1651	22.017596	3
0	1655	22.01765	2
0	1663	22.029364	3
0	1667	22.029418	2
0	1673	22.032892	3
0	1677	22.032946	2
0	1685	22.04654	3
0	1689	22.046594	2
0	1695	22.055648	3
0	1699	22.055702	2
0	1722	23	3
0	1726	23.000054	2
0	1733	23.012268	3
0	1737	23.012322	2
0	1743	23.017536	3
0	1747	23.01759	2
0	1755	23.035304	3
0	1759	23.035358	2
0	1766	23.049252	3
0	1770	23.049306	2
0	1776	23.05524	3
0	1780	23.055294	2
0	1788	23.073988	3
0	1792	23.074042	2
0	1814	24	3
0	1818	24.000054	2
0	1824	24.007888	3
0	1828	24.007942	2
0	1836	24.020236	3
0	1840	24.02029	2
0	1847	24.031464	3
0	1851	24.031518	2
0	1858	24.051072	3
0	1862	24.051126	2
0	1868	24.05858	3
0	1872	24.058634	2
0	1880	24.078708	3
0	1884	24.078762	2
0	1906	25	3
0	1910	25.000054	2
0	1916	25.007808	3
0	1920	25.007862	2
0	1928	25.018196	3
0	1932	25.01825	2
0	1939	25.036464	3
0	1943	25.036518	2
0	1949	25.044012	3
0	1953	25.044066	2
0	1961	25.05526	3
0	1965	25.055314	2
0	1972	25.074488	3
0	1976	25.074542	2
0	1998	26	3
0	2002	26.000054	2
0	2009	26.014128	3
0	2013	26.014182	2
0	2019	26.016876	3
0	2023	26.01693	2
0	2030	26.024564	3
0	2034	26.024618	2
0	2040	26.026672	3
0	2044	26.026726	2
0	2053	26.0383	3
0	2057	26.038354	2
0	2064	26.057068	3
0	2068	26.057122	2
0	2090	27	3
0	2094	27.000054	2
0	2101	27.019408	3
0	2105	27.019462	2
0	2112	27.031436	3
0	2116	27.03149	2
0	2123	27.050424	3
0	2127	27.050478	2
0	2134	27.065352	3
0	2138	27.065406	2
0	2144	27.06846	3
0	2148	27.068514	2
0	2154	27.072788	3
0	2158	27.072842	2
0	2182	28	3
0	2186	28.000054	2
0	2193	28.015788	3
0	2197	28.015842	2
0	2203	28.016756	3
0	2207	28.01681	2
0	2213	28.018064	3
0	2217	28.018118	2
0	2226	28.032312	3
0	2230	28.032366	2
0	2236	28.03318	3
0	2240	28.033234	2
0	2248	28.048888	3
0	2252	28.048942	2
0	2274	29	3
0	2278	29.000054	2
0	2285	29.017588	3
0	2289	29.017642	2
0	2295	29.017956	3
0	2299	29.01801	2
0	2307	29.033504	3
0	2311	29.033558	2
0	2317	29.039792	3
0	2321	29.039846	2
0	2327	29.04154	3
0	2331	29.041594	2
0	2337	29.042328	3
0	2341	29.042382	2
0	2366	30	3
0	2370	30.000054	2
0	2377	30.016268	3
0	2381	30.016322	2
0	2387	30.021916	3
0	2391	30.02197	2
0	2397	30.025544	3
0	2401	30.025598	2
0	2410	30.036772	3
0	2414	30.036826	2
0	2420	30.04434	3
0	2424	30.044394	2
0	2431	30.048168	3
0	2435	30.048222	2
0	2458	31	3
0	2462	31.000054	2
0	2469	31.011928	3
0	2473	31.011982	2
0	2479	31.017796	3
0	2483	31.01785	2
0	2490	31.023544	3
0	2494	31.023598	2
0	2502	31.036432	3
0	2506	31.036486	2
0	2513	31.05198	3
0	2517	31.052034	2
0	2524	31.062428	3
0	2528	31.062482	2
0	2550	32	3
0	2554	32.000054	2
0	2561	32.017648	3
0	2565	32.017702	2
0	2571	32.023176	3
0	2575	32.02323	2
0	2583	32.040924	3
0	2587	32.040978	2
0	2593	32.046992	3
0	2597	32.047046	2
0	2604	32.0537	3
0	2608	32.053754	2
0	2614	32.054228	3
0	2618	32.054282	2
0	2642	33	3
0	2646	33.000054	2
0	2652	33.008348	3
0	2656	33.008402	2
0	2663	33.017496	3
0	2667	33.01755	2
0	2674	33.022604	3
0	2678	33.022658	2
0	2684	33.026352	3
0	2688	33.026406	2
0	2696	33.03296	3
0	2700	33.033014	2
0	2708	33.053188	3
0	2712	33.053242	2
0	2734	34	3
0	2738	34.000054	2
0	2745	34.017428	3
0	2749	34.017482	2
0	2755	34.022776	3
0	2759	34.02283	2
0	2767	34.042184	3
0	2771	34.042238	2
0	2778	34.057312	3
0	2782	34.057366	2
0	2788	34.06024	3
0	2792	34.060294	2
0	2800	34.080788	3
0	2804	34.080842	2
0	2826	35	3
0	2830	35.000054	2
0	2837	35.017928	3
0	2841	35.017982	2
0	2848	35.030496	3
0	2852	35.03055	2
0	2859	35.047504	3
0	2863	35.047558	2
0	2870	35.061572	3
0	2874	35.061626	2
0	2881	35.07228	3
0	2885	35.072334	2
0	2891	35.075468	3
0	2895	35.075522	2
0	2918	36	3
0	2922	36.000054	2
0	2928	36.002348	3
0	2932	36.002402	2
0	2938	36.002996	3
0	2942	36.00305	2
0	2950	36.012424	3
0	2954	36.012478	2
0	2962	36.031692	3
0	2966	36.031746	2
0	2973	36.04962	3
0	2977	36.049674	2
0	2984	36.067488	3
0	2988	36.067542	2
0	3010	37	3
0	3014	37.000054	2
0	3021	37.012048	3
0	3025	37.012102	2
0	3032	37.025656	3
0	3036	37.02571	2
0	3043	37.043244	3
0	3047	37.043298	2
0	3054	37.061952	3
0	3058	37.062006	2
0	3064	37.06666	3
0	3068	37.066714	2
0	3076	37.076948	3
0	3080	37.077002	2
0	3102	38	3
0	3106	38.000054	2
0	3112	38.006668	3
0	3116	38.006722	2
0	3123	38.016196	3
0	3127	38.01625	2
0	3134	38.022084	3
0	3138	38.022138	2
0	3146	38.032732	3
0	3150	38.032786	2
0	3157	38.04966	3
0	3161	38.049714	2
0	3168	38.063728	3
0	3172	38.063782	2
0	3194	39	3
0	3198	39.000054	2
0	3204	39.000968	3
0	3208	39.001022	2
0	3214	39.006596	3
0	3218	39.00665	2
0	3227	39.017784	3
0	3231	39.017838	2
0	3237	39.026692	3
0	3241	39.026746	2
0	3248	39.03098	3
0	3252	39.031034	2
0	3260	39.046708	3
0	3264	39.046762	2
0	3369	40	3
0	3373	40.000054	2
0	3379	40.000628	3
0	3383	40.000682	2
0	3389	40.002116	3
0	3393	40.00217	2
0	3402	40.021824	3
0	3406	40.021878	2
0	3413	40.042112	3
0	3417	40.042166	2
0	3424	40.05768	3
0	3428	40.057734	2
0	3434	40.062508	3
0	3438	40.062562	2
0	3543	41	3
0	3547	41.000054	2
0	3553	41.000368	3
0	3557	41.000422	2
0	3565	41.012836	3
0	3569	41.01289	2
0	3575	41.017224	3
0	3579	41.017278	2
0	3585	41.020132	3
0	3589	41.020186	2
0	3598	41.03416	3
0	3602	41.034214	2
0	3609	41.054368	3
0	3613	41.054422	2
0	3717	42	3
0	3721	42.000054	2
0	3728	42.016568	3
0	3732	42.016622	2
0	3738	42.022856	3
0	3742	42.02291	2
0	3748	42.026484	3
0	3752	42.026538	2
0	3759	42.029592	3
0	3763	42.029646	2
0	3772	42.04872	3
0	3776	42.048774	2
0	3783	42.059688	3
0	3787	42.059742	2
0	3891	43	3
0	3895	43.000054	2
0	3902	43.019068	3
0	3906	43.019122	2
0	3913	43.036736	3
0	3917	43.03679	2
0	3924	43.052304	3
0	3928	43.052358	2
0	3935	43.068432	3
0	3939	43.068486	2
0	3946	43.08412	3
0	3950	43.084174	2
0	3956	43.092148	3
0	3960	43.092202	2
0	4065	44	3
0	4069	44.000054	2
0	4075	44.001908	3
0	4079	44.001962	2
0	4085	44.002716	3
0	4089	44.00277	2
0	4098	44.015764	3
0	4102	44.015818	2
0	4108	44.020552	3
0	4112	44.020606	2
0	4120	44.03604	3
0	4124	44.036094	2
0	4130	44.036908	3
0	4134	44.036962	2
0	4239	45	3
0	4243	45.000054	2
0	4249	45.003928	3
0	4253	45.003982	2
0	4259	45.006656	3
0	4263	45.00671	2
0	4270	45.010984	3
0	4274	45.011038	2
0	4282	45.018492	3
0	4286	45.018546	2
0	4293	45.02446	3
0	4297	45.024514	2
0	4304	45.032128	3
0	4308	45.032182	2
0	4413	46	3
0	4417	46.000054	2
0	4423	46.002428	3
0	4427	46.002482	2
0	4435	46.018536	3
0	4439	46.01859	2
0	4445	46.019264	3
0	4449	46.019318	2
0	4457	46.034472	3
0	4461	46.034526	2
0	4467	46.0404	3
0	4471	46.040454	2
0	4477	46.043468	3
0	4481	46.043522	2
0	4587	47	3
0	4591	47.000054	2
0	4598	47.015448	3
0	4602	47.015502	2
0	4608	47.022036	3
0	4612	47.02209	2
0	4620	47.034644	3
0	4624	47.034698	2
0	4630	47.036612	3
0	4634	47.036666	2
0	4640	47.04358	3
0	4644	47.043634	2
0	4652	47.052188	3
0	4656	47.052242	2
0	4761	48	3
0	4765	48.000054	2
0	4771	48.001808	3
0	4775	48.001862	2
0	4782	48.010616	3
0	4786	48.01067	2
0	4794	48.026944	3
0	4798	48.026998	2
0	4804	48.028952	3
0	4808	48.029006	2
0	4814	48.03258	3
0	4818	48.032634	2
0	4826	48.040828	3
0	4830	48.040882	2
0	4935	49	3
0	4939	49.000054	2
0	4946	49.019228	3
0	4950	49.019282	2
0	4957	49.037296	3
0	4961	49.03735	2
0	4968	49.057084	3
0	4972	49.057138	2
0	4979	49.068732	3
0	4983	49.068786	2
0	4989	49.0692	3
0	4993	49.069254	2
0	4999	49.071468	3
0	5003	49.071522	2
0	5109	50	3
0	5113	50.000054	2
0	5119	50.002008	3
0	5123	50.002062	2
0	5131	50.019976	3
0	5135	50.02003	2
0	5142	50.035124	3
0	5146	50.035178	2
0	5152	50.037012	3
0	5156	50.037066	2
0	5162	50.04036	3
0	5166	50.040414	2
0	5172	50.043448	3
0	5176	50.043502	2
0	5283	51	3
0	5287	51.000054	2
0	5294	51.014448	3
0	5298	51.014502	2
0	5305	51.029236	3
0	5309	51.02929	2
0	5316	51.048024	3
0	5320	51.048078	2
0	5326	51.053792	3
0	5330	51.053846	2
0	5338	51.06994	3
0	5342	51.069994	2
0	5348	51.078608	3
0	5352	51.078662	2
0	5457	52	3
0	5461	52.000054	2
0	5468	52.013088	3
0	5472	52.013142	2
0	5479	52.032596	3
0	5483	52.03265	2
0	5490	52.044204	3
0	5494	52.044258	2
0	5501	52.057412	3
0	5505	52.057466	2
0	5512	52.0679	3
0	5516	52.067954	2
0	5522	52.073168	3
0	5526	52.073222	2
0	5631	53	3
0	5635	53.000054	2
0	5642	53.011868	3
0	5646	53.011922	2
0	5653	53.028416	3
0	5657	53.02847	2
0	5664	53.048684	3
0	5668	53.048738	2
0	5674	53.057492	3
0	5678	53.057546	2
0	5685	53.06202	3
0	5689	53.062074	2
0	5697	53.078548	3
0	5701	53.078602	2
0	5805	54	3
0	5809	54.000054	2
0	5816	54.016608	3
0	5820	54.016662	2
0	5827	54.026916	3
0	5831	54.02697	2
0	5838	54.047464	3
0	5842	54.047518	2
0	5849	54.063332	3
0	5853	54.063386	2
0	5860	54.0823	3
0	5864	54.082354	2
0	5871	54.099548	3
0	5875	54.099602	2
0	5979	55	3
0	5983	55.000054	2
0	5989	55.003408	3
0	5993	55.003462	2
0	6001	55.014956	3
0	6005	55.01501	2
0	6012	55.034004	3
0	6016	55.034058	2
0	6022	55.036272	3
0	6026	55.036326	2
0	6032	55.04044	3
0	6036	55.040494	2
0	6044	55.046588	3
0	6048	55.046642	2
0	6153	56	3
0	6157	56.000054	2
0	6164	56.020468	3
0	6168	56.020522	2
0	6175	56.031296	3
0	6179	56.03135	2
0	6186	56.041524	3
0	6190	56.041578	2
0	6197	56.058612	3
0	6201	56.058666	2
0	6208	56.07846	3
0	6212	56.078514	2
0	6219	56.094128	3
0	6223	56.094182	2
0	6327	57	3
0	6331	57.000054	2
0	6338	57.017788	3
0	6342	57.017842	2
0	6349	57.032916	3
0	6353	57.03297	2
0	6360	57.046324	3
0	6364	57.046378	2
0	6370	57.052072	3
0	6374	57.052126	2
0	6380	57.0523	3
0	6384	57.052354	2
0	6393	57.064688	3
0	6397	57.064742	2
0	6501	58	3
0	6505	58.000054	2
0	6511	58.008288	3
0	6515	58.008342	2
0	6522	58.016656	3
0	6526	58.01671	2
0	6532	58.017384	3
0	6536	58.017438	2
0	6545	58.036112	3
0	6549	58.036166	2
0	6555	58.04368	3
0	6559	58.043734	2
0	6567	58.060248	3
0	6571	58.060302	2
0	6675	59	3
0	6679	59.000054	2
0	6686	59.017168	3
0	6690	59.017222	2
0	6696	59.024836	3
0	6700	59.02489	2
0	6708	59.043624	3
0	6712	59.043678	2
0	6719	59.058192	3
0	6723	59.058246	2
0	6729	59.0613	3
0	6733	59.061354	2
0	6741	59.079148	3
0	6745	59.079202	2
0	6849	60	3
0	6853	60.000054	2
0	6860	60.019008	3
0	6864	60.019062	2
0	6871	60.032156	3
0	6875	60.03221	2
0	6881	60.037044	3
0	6885	60.037098	2
0	6892	60.044392	3
0	6896	60.044446	2
0	6904	60.06434	3
0	6908	60.064394	2
0	6915	60.081668	3
0	6919	60.081722	2
0	7023	61	3
0	7027	61.000054	2
0	7033	61.006928	3
0	7037	61.006982	2
0	7045	61.023956	3
0	7049	61.02401	2
0	7055	61.029584	3
0	7059	61.029638	2
0	7066	61.037112	3
0	7070	61.037166	2
0	7078	61.0541	3
0	7082	61.054154	2
0	7088	61.058768	3
0	7092	61.058822	2
0	7197	62	3
0	7201	62.000054	2
0	7207	62.000628	3
0	7211	62.000682	2
0	7219	62.014736	3
0	7223	62.01479	2
0	7229	62.020724	3
0	7233	62.020778	2
0	7240	62.027972	3
0	7244	62.028026	2
0	7252	62.04486	3
0	7256	62.044914	2
0	7262	62.047688	3
0	7266	62.047742	2
0	7371	63	3
0	7375	63.000054	2
0	7381	63.005108	3
0	7385	63.005162	2
0	7392	63.012556	3
0	7396	63.01261	2
0	7404	63.031644	3
0	7408	63.031698	2
0	7414	63.035812	3
0	7418	63.035866	2
0	7425	63.0447	3
0	7429	63.044754	2
0	7436	63.048788	3
0	7440	63.048842	2
0	7545	64	3
0	7549	64.000054	2
0	7555	64.009648	3
0	7559	64.009702	2
0	7567	64.022196	3
0	7571	64.02225	2
0	7577	64.028804	3
0	7581	64.028858	2
0	7587	64.030992	3
0	7591	64.031046	2
0	7600	64.04818	3
0	7604	64.048234	2
0	7610	64.054868	3
0	7614	64.054922	2
0	7719	65	3
0	7723	65.000054	2
0	7729	65.003128	3
0	7733	65.003182	2
0	7741	65.023216	3
0	7745	65.02327	2
0	7751	65.032884	3
0	7755	65.032938	2
0	7762	65.040872	3
0	7766	65.040926	2
0	7774	65.05468	3
0	7778	65.054734	2
0	7785	65.065988	3
0	7789	65.066042	2
0	7893	66	3
0	7897	66.000054	2
0	7903	66.002068	3
0	7907	66.002122	2
0	7915	66.019236	3
0	7919	66.01929	2
0	7925	66.025024	3
0	7929	66.025078	2
0	7937	66.039532	3
0	7941	66.039586	2
0	7947	66.04032	3
0	7951	66.040374	2
0	7957	66.042768	3
0	7961	66.042822	2
0	8067	67	3
0	8071	67.000054	2
0	8077	67.002008	3
0	8081	67.002062	2
0	8087	67.009096	3
0	8091	67.00915	2
0	8099	67.017264	3
0	8103	67.017318	2
0	8110	67.025792	3
0	8114	67.025846	2
0	8122	67.04006	3
0	8126	67.040114	2
0	8132	67.048288	3
0	8136	67.048342	2
0	8241	68	3
0	8245	68.000054	2
0	8251	68.004248	3
0	8255	68.004302	2
0	8262	68.012676	3
0	8266	68.01273	2
0	8273	68.020124	3
0	8277	68.020178	2
0	8285	68.037372	3
0	8289	68.037426	2
0	8296	68.05228	3
0	8300	68.052334	2
0	8306	68.060808	3
0	8310	68.060862	2
0	8415	69	3
0	8419	69.000054	2
0	8425	69.001168	3
0	8429	69.001222	2
0	8437	69.021276	3
0	8441	69.02133	2
0	8448	69.037704	3
0	8452	69.037758	2
0	8459	69.052252	3
0	8463	69.052306	2
0	8470	69.06386	3
0	8474	69.063914	2
0	8480	69.072888	3
0	8484	69.072942	2
0	8589	70	3
0	8593	70.000054	2
0	8600	70.013848	3
0	8604	70.013902	2
0	8610	70.018896	3
0	8614	70.01895	2
0	8621	70.027324	3
0	8625	70.027378	2
0	8633	70.038012	3
0	8637	70.038066	2
0	8643	70.04154	3
0	8647	70.041594	2
0	8653	70.045008	3
0	8657	70.045062	2
0	8763	71	3
0	8767	71.000054	2
0	8773	71.006828	3
0	8777	71.006882	2
0	8785	71.021796	3
0	8789	71.02185	2
0	8795	71.026324	3
0	8799	71.026378	2
0	8805	71.031392	3
0	8809	71.031446	2
0	8816	71.03354	3
0	8820	71.033594	2
0	8828	71.041988	3
0	8832	71.042042	2
0	8937	72	3
0	8941	72.000054	2
0	8948	72.017108	3
0	8952	72.017162	2
0	8958	72.018576	3
0	8962	72.01863	2
0	8969	72.027844	3
0	8973	72.027898	2
0	8981	72.048212	3
0	8985	72.048266	2
0	8991	72.05086	3
0	8995	72.050914	2
0	9001	72.053768	3
0	9005	72.053822	2
0	9111	73	3
0	9115	73.000054	2
0	9122	73.019648	3
0	9126	73.019702	2
0	9132	73.019856	3
0	9136	73.01991	2
0	9144	73.034004	3
0	9148	73.034058	2
0	9154	73.038912	3
0	9158	73.038966	2
0	9166	73.0526	3
0	9170	73.052654	2
0	9176	73.056168	3
0	9180	73.056222	2
0	9285	74	3
0	9289	74.000054	2
0	9296	74.019908	3
0	9300	74.019962	2
0	9307	74.032336	3
0	9311	74.03239	2
0	9318	74.049864	3
0	9322	74.049918	2
0	9328	74.057592	3
0	9332	74.057646	2
0	9340	74.07192	3
0	9344	74.071974	2
0	9350	74.074248	3
0	9354	74.074302	2
0	9459	75	3
0	9463	75.000054	2
0	9469	75.005008	3
0	9473	75.005062	2
0	9480	75.010156	3
0	9484	75.01021	2
0	9491	75.018144	3
0	9495	75.018198	2
0	9503	75.033612	3
0	9507	75.033666	2
0	9513	75.03938	3
0	9517	75.039434	2
0	9523	75.039948	3
0	9527	75.040002	2
0	9633	76	3
0	9637	76.000054	2
0	9643	76.007928	3
0	9647	76.007982	2
0	9655	76.022276	3
0	9659	76.02233	2
0	9665	76.030344	3
0	9669	76.030398	2
0	9676	76.037412	3
0	9680	76.037466	2
0	9688	76.04928	3
0	9692	76.049334	2
0	9699	76.069808	3
0	9703	76.069862	2
0	9807	77	3
0	9811	77.000054	2
0	9817	77.009168	3
0	9821	77.009222	2
0	9828	77.012076	3
0	9832	77.01213	2
0	9840	77.027304	3
0	9844	77.027358	2
0	9850	77.033712	3
0	9854	77.033766	2
0	9861	77.04336	3
0	9865	77.043414	2
0	9872	77.050408	3
0	9876	77.050462	2
0	9981	78	3
0	9985	78.000054	2
0	9991	78.007148	3
0	9995	78.007202	2
0	10003	78.020576	3
0	10007	78.02063	2
0	10014	78.033584	3
0	10018	78.033638	2
0	10024	78.040232	3
0	10028	78.040286	2
0	10035	78.04886	3
0	10039	78.048914	2
0	10046	78.052288	3
0	10050	78.052342	2
0	10155	79	3
0	10159	79.000054	2
0	10166	79.019128	3
0	10170	79.019182	2
0	10177	79.034216	3
0	10181	79.03427	2
0	10187	79.035284	3
0	10191	79.035338	2
0	10199	79.045352	3
0	10203	79.045406	2
0	10210	79.06574	3
0	10214	79.065794	2
0	10221	79.078668	3
0	10225	79.078722	2
0	10329	80	3
0	10333	80.000054	2
0	10340	80.012128	3
0	10344	80.012182	2
0	10351	80.024996	3
0	10355	80.02505	2
0	10361	80.033324	3
0	10365	80.033378	2
0	10372	80.036952	3
0	10376	80.037006	2
0	10384	80.04706	3
0	10388	80.047114	2
0	10395	80.064708	3
0	10399	80.064762	2
0	10503	81	3
0	10507	81.000054	2
0	10514	81.013008	3
0	10518	81.013062	2
0	10524	81.014116	3
0	10528	81.01417	2
0	10534	81.015784	3
0	10538	81.015838	2
0	10544	81.021792	3
0	10548	81.021846	2
0	10556	81.02426	3
0	10560	81.024314	2
0	10568	81.034268	3
0	10573	81.034322	2
0	10677	82	3
0	10681	82.000054	2
0	10688	82.010448	3
0	10692	82.010502	2
0	10698	82.012076	3
0	10702	82.01213	2
0	10710	82.024144	3
0	10714	82.024198	2
0	10720	82.034092	3
0	10724	82.034146	2
0	10731	82.04066	3
0	10735	82.040714	2
0	10743	82.058548	3
0	10747	82.058602	2
0	10851	83	3
0	10855	83.000054	2
0	10862	83.012428	3
0	10866	83.012482	2
0	10873	83.028116	3
0	10877	83.02817	2
0	10883	83.033424	3
0	10887	83.033478	2
0	10894	83.041012	3
0	10898	83.041066	2
0	10906	83.05868	3
0	10910	83.058734	2
0	10917	83.073728	3
0	10921	83.073782	2
0	11025	84	3
0	11029	84.000054	2
0	11035	84.004648	3
0	11039	84.004702	2
0	11046	84.013216	3
0	11050	84.01327	2
0	11057	84.016704	3
0	11061	84.016758	2
0	11069	84.035412	3
0	11073	84.035466	2
0	11079	84.04312	3
0	11083	84.043174	2
0	11090	84.049048	3
0	11094	84.049102	2
0	11199	85	3
0	11203	85.000054	2
0	11209	85.005628	3
0	11213	85.005682	2
0	11220	85.013956	3
0	11224	85.01401	2
0	11232	85.032504	3
0	11236	85.032558	2
0	11243	85.043672	3
0	11247	85.043726	2
0	11253	85.0485	3
0	11257	85.048554	2
0	11265	85.061348	3
0	11269	85.061402	2
0	11373	86	3
0	11377	86.000054	2
0	11384	86.014288	3
0	11388	86.014342	2
0	11395	86.032476	3
0	11399	86.03253	2
0	11406	86.047244	3
0	11410	86.047298	2
0	11417	86.064732	3
0	11421	86.064786	2
0	11427	86.0737	3
0	11431	86.073754	2
0	11439	86.093168	3
0	11443	86.093222	2
0	11547	87	3
0	11551	87.000054	2
0	11557	87.007448	3
0	11561	87.007502	2
0	11567	87.009696	3
0	11571	87.00975	2
0	11580	87.023964	3
0	11584	87.024018	2
0	11590	87.028612	3
0	11594	87.028666	2
0	11602	87.0418	3
0	11606	87.041854	2
0	11613	87.057608	3
0	11617	87.057662	2
0	11721	88	3
0	11725	88.000054	2
0	11731	88.005388	3
0	11735	88.005442	2
0	11743	88.017816	3
0	11747	88.01787	2
0	11754	88.036644	3
0	11758	88.036698	2
0	11764	88.043412	3
0	11768	88.043466	2
0	11775	88.05096	3
0	11779	88.051014	2
0	11786	88.057928	3
0	11790	88.057982	2
0	11895	89	3
0	11899	89.000054	2
0	11905	89.007928	3
0	11909	89.007982	2
0	11917	89.020636	3
0	11921	89.02069	2
0	11927	89.024404	3
0	11931	89.024458	2
0	11937	89.029252	3
0	11941	89.029306	2
0	11948	89.03326	3
0	11952	89.033314	2
0	11961	89.049628	3
0	11965	89.049682	2
0	12069	90	3
0	12073	90.000054	2
0	12079	90.004588	3
0	12083	90.004642	2
0	12091	90.016816	3
0	12095	90.01687	2
0	12101	90.021684	3
0	12105	90.021738	2
0	12111	90.023932	3
0	12115	90.023986	2
0	12122	90.02834	3
0	12126	90.028394	2
0	12135	90.038848	3
0	12139	90.038902	2
0	12243	91	3
0	12247	91.000054	2
0	12254	91.011568	3
0	12258	91.011622	2
0	12265	91.024216	3
0	12269	91.02427	2
0	12275	91.026264	3
0	12279	91.026318	2
0	12285	91.033452	3
0	12289	91.033506	2
0	12298	91.04352	3
0	12302	91.043574	2
0	12308	91.047828	3
0	12312	91.047882	2
0	12417	92	3
0	12421	92.000054	2
0	12427	92.008208	3
0	12431	92.008262	2
0	12438	92.016136	3
0	12442	92.01619	2
0	12450	92.032364	3
0	12454	92.032418	2
0	12461	92.044412	3
0	12465	92.044466	2
0	12471	92.0471	3
0	12475	92.047154	2
0	12482	92.056928	3
0	12486	92.056982	2
0	12591	93	3
0	12595	93.000054	2
0	12602	93.011988	3
0	12606	93.012042	2
0	12612	93.020396	3
0	12616	93.02045	2
0	12622	93.020544	3
0	12626	93.020598	2
0	12635	93.035232	3
0	12639	93.035286	2
0	12646	93.04976	3
0	12650	93.049814	2
0	12657	93.066748	3
0	12661	93.066802	2
0	12765	94	3
0	12769	94.000054	2
0	12776	94.015488	3
0	12780	94.015542	2
0	12787	94.032116	3
0	12791	94.03217	2
0	12797	94.038624	3
0	12801	94.038678	2
0	12809	94.057812	3
0	12813	94.057866	2
0	12820	94.06916	3
0	12824	94.069214	2
0	12830	94.072208	3
0	12834	94.072262	2
0	12939	95	3
0	12943	95.000054	2
0	12950	95.018388	3
0	12954	95.018442	2
0	12960	95.023096	3
0	12964	95.02315	2
0	12972	95.040024	3
0	12976	95.040078	2
0	12982	95.046532	3
0	12986	95.046586	2
0	12994	95.0625	3
0	12998	95.062554	2
0	13005	95.079828	3
0	13009	95.079882	2
0	13113	96	3
0	13117	96.000054	2
0	13123	96.010048	3
0	13128	96.010102	2
0	13135	96.022716	3
0	13139	96.02277	2
0	13146	96.033324	3
0	13150	96.033378	2
0	13157	96.053132	3
0	13161	96.053186	2
0	13168	96.0702	3
0	13172	96.070254	2
0	13179	96.090328	3
0	13183	96.090382	2
0	13287	97	3
0	13291	97.000054	2
0	13297	97.008568	3
0	13301	97.008622	2
0	13308	97.010076	3
0	13312	97.01013	2
0	13319	97.018964	3
0	13323	97.019018	2
0	13329	97.019372	3
0	13333	97.019426	2
0	13340	97.02154	3
0	13344	97.021594	2
0	13353	97.037428	3
0	13357	97.037482	2
0	13461	98	3
0	13465	98.000054	2
0	13472	98.018168	3
0	13476	98.018222	2
0	13483	98.037836	3
0	13487	98.03789	2
0	13493	98.042584	3
0	13497	98.042638	2
0	13505	98.052812	3
0	13509	98.052866	2
0	13516	98.07168	3
0	13520	98.071734	2
0	13527	98.085068	3
0	13531	98.085122	2
0	13635	99	3
0	13639	99.000054	2
0	13645	99.006468	3
0	13649	99.006522	2
0	13657	99.021436	3
0	13661	99.02149	2
0	13667	99.026584	3
0	13671	99.026638	2
0	13679	99.038832	3
0	13683	99.038886	2
0	13690	99.0526	3
0	13694	99.052654	2
0	13701	99.063788	3
0	13705	99.063842	2
0	13809	100	3
0	13813	100.000054	2
0	13819	100.004908	3
0	13823	100.004962	2
0	13831	100.018596	3
0	13835	100.01865	2
0	13841	100.026384	3
0	13845	100.026438	2
0	13852	100.030852	3
0	13856	100.030906	2
0	13863	100.03644	3
0	13867	100.036494	2
0	13875	100.053928	3
0	13879	100.053982	2
0	13983	101	3
0	13987	101.000054	2
0	13993	101.009088	3
0	13997	101.009142	2
0	14004	101.017436	3
0	14008	101.01749	2
0	14016	101.032164	3
0	14020	101.032218	2
0	14026	101.039212	3
0	14030	101.039266	2
0	14036	101.04204	3
0	14040	101.042094	2
0	14047	101.046508	3
0	14051	101.046562	2
0	14157	102	3
0	14161	102.000054	2
0	14167	102.007628	3
0	14171	102.007682	2
0	14179	102.026076	3
0	14183	102.02613	2
0	14190	102.041244	3
0	14194	102.041298	2
0	14201	102.057192	3
0	14205	102.057246	2
0	14211	102.06464	3
0	14215	102.064694	2
0	14223	102.082928	3
0	14227	102.082982	2
0	14331	103	3
0	14335	103.000054	2
0	14341	103.007268	3
0	14345	103.007322	2
0	14353	103.024416	3
0	14357	103.02447	2
0	14364	103.036544	3
0	14368	103.036598	2
0	14374	103.044792	3
0	14378	103.044846	2
0	14386	103.05514	3
0	14390	103.055194	2
0	14397	103.065568	3
0	14401	103.065622	2
0	14505	104	3
0	14509	104.000054	2
0	14516	104.018168	3
0	14520	104.018222	2
0	14526	104.023536	3
0	14530	104.02359	2
0	14536	104.024444	3
0	14540	104.024498	2
0	14549	104.038092	3
0	14553	104.038146	2
0	14559	104.04	3
0	14563	104.040054	2
0	14571	104.059048	3
0	14575	104.059102	2
0	14679	105	3
0	14683	105.000054	2
0	14690	105.017168	3
0	14694	105.017222	2
0	14701	105.035296	3
0	14705	105.03535	2
0	14712	105.047224	3
0	14716	105.047278	2
0	14722	105.052712	3
0	14726	105.052766	2
0	14733	105.0608	3
0	14737	105.060854	2
0	14744	105.070628	3
0	14748	105.070682	2
0	14853	106	3
0	14857	106.000054	2
0	14863	106.003048	3
0	14867	106.003102	2
0	14875	106.015456	3
0	14879	106.01551	2
0	14886	106.035304	3
0	14890	106.035358	2
0	14896	106.040332	3
0	14900	106.040386	2
0	14907	106.04986	3
0	14911	106.049914	2
0	14918	106.053668	3
0	14922	106.053722	2
0	15027	107	3
0	15031	107.000054	2
0	15037	107.000368	3
0	15041	107.000422	2
0	15049	107.020376	3
0	15053	107.02043	2
0	15060	107.031264	3
0	15064	107.031318	2
0	15070	107.033352	3
0	15074	107.033406	2
0	15080	107.04052	3
0	15084	107.040574	2
0	15092	107.046688	3
0	15096	107.046742	2
0	15201	108	3
0	15205	108.000054	2
0	15212	108.017308	3
0	15216	108.017362	2
0	15222	108.026056	3
0	15226	108.02611	2
0	15234	108.038884	3
0	15238	108.038938	2
0	15244	108.047292	3
0	15248	108.047346	2
0	15256	108.06284	3
0	15260	108.062894	2
0	15267	108.075888	3
0	15271	108.075942	2
0	15375	109	3
0	15379	109.000054	2
0	15385	109.007308	3
0	15389	109.007362	2
0	15397	109.022676	3
0	15401	109.02273	2
0	15408	109.041764	3
0	15412	109.041818	2
0	15419	109.060412	3
0	15423	109.060466	2
0	15430	109.07446	3
0	15434	109.074514	2
0	15441	109.087108	3
0	15445	109.087162	2
0	15549	110	3
0	15553	110.000054	2
0	15559	110.002488	3
0	15563	110.002542	2
0	15570	110.010056	3
0	15574	110.01011	2
0	15581	110.019604	3
0	15585	110.019658	2
0	15592	110.023452	3
0	15596	110.023506	2
0	15603	110.03058	3
0	15607	110.030634	2
0	15615	110.043008	3
0	15619	110.043062	2
0	15723	111	3
0	15727	111.000054	2
0	15734	111.015728	3
0	15738	111.015782	2
0	15745	111.035256	3
0	15749	111.03531	2
0	15756	111.045864	3
0	15760	111.045918	2
0	15767	111.061692	3
0	15771	111.061746	2
0	15777	111.06304	3
0	15781	111.063094	2
0	15789	111.075888	3
0	15793	111.075942	2
0	15897	112	3
0	15901	112.000054	2
0	15908	112.011848	3
0	15912	112.011902	2
0	15919	112.030076	3
0	15923	112.03013	2
0	15930	112.049784	3
0	15934	112.049838	2
0	15940	112.057832	3
0	15944	112.057886	2
0	15951	112.0675	3
0	15955	112.067554	2
0	15962	112.075108	3
0	15966	112.075162	2
0	16071	113	3
0	16075	113.000054	2
0	16082	113.014648	3
0	16086	113.014702	2
0	16093	113.026596	3
0	16097	113.02665	2
0	16104	113.044324	3
0	16108	113.044378	2
0	16115	113.061132	3
0	16119	113.061186	2
0	16126	113.07816	3
0	16130	113.078214	2
0	16136	113.083648	3
0	16140	113.083702	2
0	16245	114	3
0	16249	114.000054	2
0	16256	114.010708	3
0	16260	114.010762	2
0	16267	114.021756	3
0	16271	114.02181	2
0	16277	114.022564	3
0	16281	114.022618	2
0	16287	114.026152	3
0	16291	114.026206	2
0	16299	114.03602	3
0	16303	114.036074	2
0	16311	114.052328	3
0	16315	114.052382	2
0	16419	115	3
0	16423	115.000054	2
0	16429	115.001428	3
0	16433	115.001482	2
0	16441	115.016396	3
0	16445	115.01645	2
0	16451	115.022284	3
0	16455	115.022338	2
0	16461	115.024012	3
0	16465	115.024066	2
0	16471	115.02582	3
0	16475	115.025874	2
0	16485	115.041628	3
0	16489	115.041682	2
0	16593	116	3
0	16597	116.000054	2
0	16604	116.014828	3
0	16608	116.014882	2
0	16615	116.029116	3
0	16619	116.02917	2
0	16625	116.035984	3
0	16629	116.036038	2
0	16636	116.042532	3
0	16640	116.042586	2
0	16646	116.04526	3
0	16650	116.045314	2
0	16659	116.061768	3
0	16663	116.061822	2
0	16767	117	3
0	16771	117.000054	2
0	16777	117.006688	3
0	16781	117.006742	2
0	16788	117.012496	3
0	16792	117.01255	2
0	16799	117.016964	3
0	16803	117.017018	2
0	16810	117.023372	3
0	16814	117.023426	2
0	16822	117.04004	3
0	16826	117.040094	2
0	16832	117.044508	3
0	16836	117.044562	2
0	16941	118	3
0	16945	118.000054	2
0	16951	118.005048	3
0	16955	118.005102	2
0	16961	118.007016	3
0	16965	118.00707	2
0	16971	118.008044	3
0	16975	118.008098	2
0	16985	118.023852	3
0	16989	118.023906	2
0	16996	118.04442	3
0	17000	118.044474	2
0	17007	118.056548	3
0	17011	118.056602	2
0	17115	119	3
0	17119	119.000054	2
0	17125	119.001128	3
0	17129	119.001182	2
0	17137	119.020176	3
0	17141	119.02023	2
0	17147	119.027184	3
0	17151	119.027238	2
0	17159	119.038712	3
0	17163	119.038766	2
0	17170	119.05326	3
0	17174	119.053314	2
0	17180	119.054228	3
0	17184	119.054282	2
0	17289	120	3
0	17293	120.000054	2
0	17300	120.013388	3
0	17304	120.013442	2
0	17310	120.015116	3
0	17314	120.01517	2
0	17320	120.016744	3
0	17324	120.016798	2
0	17330	120.020132	3
0	17334	120.020186	2
0	17344	120.03388	3
0	17348	120.033934	2
0	17355	120.047588	3
0	17359	120.047642	2
0	17395	121	3
0	17399	121.00005	2
0	17435	122	3
0	17439	122.00005	2
0	17475	123	3
0	17479	123.00005	2
0	17515	124	3
0	17519	124.00005	2
0	17555	125	3
0	17559	125.00005	2
0	17589	125.256805160925	3
0	17593	125.256859160925	2
0	17613	125.25755398795	3
0	17617	125.25760798795	2
0	17636	125.258282814909	3
0	17640	125.258336814909	2
0	17655	125.259451641802	3
0	17659	125.259505641802	2
0	17667	125.261059641802	3
0	17671	125.261113641802	2
0	17685	125.270167641802	3
0	17689	125.270221641802	2
0	17697	125.278335641802	3
0	17701	125.278389641802	2
0	17715	125.278904466906	3
0	17719	125.278954466906	2
0	17764	125.297553291133	3
0	17769	125.297587291133	2
0	17774	125.297977291133	3
0	17778	125.298031291133	2
0	17823	125.298938114447	3
0	17828	125.298972114447	2
0	17856	125.299634937687	3
0	17861	125.299668937687	2
0	17894	125.300651760851	3
0	17899	125.300685760851	2
0	17905	125.301195760851	3
0	17909	125.301249760851	2
0	17916	125.302443760851	3
0	17920	125.302497760851	2
0	17927	125.303611760851	3
0	17931	125.303665760851	2
0	17946	125.304434583669	3
0	17951	125.304468583669	2
0	17969	125.304743406436	3
0	17974	125.304777406436	2
0	17981	125.307807406436	3
0	17985	125.307861406436	2
0	18010	125.317535406436	3
0	18014	125.317589406436	2
0	18022	125.321403406436	3
0	18026	125.321457406436	2
0	18035	125.339431406436	3
0	18039	125.339485406436	2
0	18059	126	3
0	18063	126.000054	2
0	18114	126.252317162852	3
0	18119	126.252351162852	2
0	18140	127	3
0	18144	127.000054	2
0	18150	127.000788	3
0	18154	127.000842	2
0	18160	127.002616	3
0	18164	127.00267	2
0	18170	127.007464	3
0	18174	127.007518	2
0	18180	127.009112	3
0	18184	127.009166	2
0	18193	127.01368	3
0	18197	127.013734	2
0	18203	127.014628	3
0	18207	127.014682	2
0	18314	128	3
0	18318	128.000054	2
0	18324	128.000928	3
0	18328	128.000982	2
0	18334	128.002076	3
0	18338	128.00213	2
0	18344	128.003584	3
0	18348	128.003638	2
0	18357	128.013612	3
0	18362	128.013666	2
0	18369	128.0332	3
0	18373	128.033254	2
0	18380	128.047288	3
0	18384	128.047342	2
0	18488	129	3
0	18492	129.000054	2
0	18498	129.003448	3
0	18502	129.003502	2
0	18510	129.018276	3
0	18514	129.01833	2
0	18520	129.025884	3
0	18524	129.025938	2
0	18531	129.035912	3
0	18536	129.035966	2
0	18542	129.04188	3
0	18546	129.041934	2
0	18554	129.060908	3
0	18558	129.060962	2
0	18662	130	3
0	18666	130.000054	2
0	18673	130.010628	3
0	18677	130.010682	2
0	18684	130.024976	3
0	18688	130.02503	2
0	18695	130.037844	3
0	18699	130.037898	2
0	18706	130.047972	3
0	18710	130.048026	2
0	18717	130.06676	3
0	18721	130.066814	2
0	18727	130.068888	3
0	18731	130.068942	2
0	18836	131	3
0	18840	131.000054	2
0	18846	131.000728	3
0	18850	131.000782	2
0	18858	131.019816	3
0	18862	131.01987	2
0	18868	131.021164	3
0	18872	131.021218	2
0	18880	131.041632	3
0	18884	131.041686	2
0	18890	131.04852	3
0	18894	131.048574	2
0	18902	131.065368	3
0	18906	131.065422	2
0	19010	132	3
0	19014	132.000054	2
0	19020	132.005688	3
0	19024	132.005742	2
0	19032	132.019416	3
0	19036	132.01947	2
0	19043	132.034484	3
0	19047	132.034538	2
0	19053	132.041232	3
0	19057	132.041286	2
0	19065	132.0522	3
0	19069	132.052254	2
0	19075	132.057168	3
0	19079	132.057222	2
0	19184	133	3
0	19188	133.000054	2
0	19194	133.000408	3
0	19198	133.000462	2
0	19206	133.015936	3
0	19210	133.01599	2
0	19217	133.031344	3
0	19221	133.031398	2
0	19227	133.036652	3
0	19231	133.036706	2
0	19239	133.05348	3
0	19243	133.053534	2
0	19249	133.056568	3
0	19253	133.056622	2
0	19358	134	3
0	19362	134.000054	2
0	19368	134.002948	3
0	19372	134.003002	2
0	19378	134.007916	3
0	19382	134.00797	2
0	19391	134.027264	3
0	19395	134.027318	2
0	19401	134.032552	3
0	19405	134.032606	2
0	19412	134.0411	3
0	19416	134.041154	2
0	19424	134.056808	3
0	19428	134.056862	2
0	19532	135	3
0	19536	135.000054	2
0	19543	135.011328	3
0	19547	135.011382	2
0	19554	135.023336	3
0	19558	135.02339	2
0	19564	135.031884	3
0	19568	135.031938	2
0	19575	135.036012	3
0	19579	135.036066	2
0	19586	135.04234	3
0	19590	135.042394	2
0	19598	135.056688	3
0	19602	135.056742	2
0	19706	136	3
0	19710	136.000054	2
0	19716	136.008168	3
0	19720	136.008222	2
0	19726	136.009016	3
0	19730	136.00907	2
0	19739	136.026924	3
0	19743	136.026978	2
0	19749	136.032572	3
0	19753	136.032626	2
0	19761	136.05096	3
0	19765	136.051014	2
0	19772	136.061808	3
0	19776	136.061862	2
0	19880	137	3
0	19884	137.000054	2
0	19890	137.000988	3
0	19894	137.001042	2
0	19902	137.020536	3
0	19906	137.02059	2
0	19913	137.031664	3
0	19917	137.031718	2
0	19923	137.039052	3
0	19927	137.039106	2
0	19935	137.05024	3
0	19939	137.050294	2
0	19946	137.067968	3
0	19950	137.068022	2
0	20054	138	3
0	20058	138.000054	2
0	20064	138.004928	3
0	20068	138.004982	2
0	20076	138.023296	3
0	20080	138.02335	2
0	20086	138.031324	3
0	20090	138.031378	2
0	20097	138.034412	3
0	20101	138.034466	2
0	20109	138.05146	3
0	20113	138.051514	2
0	20120	138.071588	3
0	20124	138.071642	2
0	20228	139	3
0	20232	139.000054	2
0	20239	139.017828	3
0	20243	139.017882	2
0	20249	139.020056	3
0	20253	139.02011	2
0	20259	139.027844	3
0	20264	139.027898	2
0	20271	139.035332	3
0	20275	139.035386	2
0	20281	139.0378	3
0	20285	139.037854	2
0	20294	139.057868	3
0	20298	139.057922	2
0	20402	140	3
0	20406	140.000054	2
0	20413	140.015968	3
0	20417	140.016022	2
0	20424	140.029216	3
0	20428	140.02927	2
0	20434	140.032804	3
0	20438	140.032858	2
0	20446	140.044852	3
0	20450	140.044906	2
0	20456	140.04738	3
0	20460	140.047434	2
0	20468	140.058868	3
0	20472	140.058922	2
1	0	0	0
2	0	0	0
2	0	0	0
2	0	0	2
2	22	0.00059	3
2	26	0.00064	2
2	58	0.001258000028	3
2	63	0.001292000028	2
2	68	0.001462000028	3
2	72	0.001520000028	2
2	128	1.000064033341	3
2	133	1.000098033341	2
2	138	1.000388033341	3
2	142	1.000446033341	2
2	194	2.000064066697	3
2	199	2.000098066697	2
2	204	2.000268066697	3
2	208	2.000326066697	2
2	260	3.000064100054	3
2	265	3.000098100054	2
2	270	3.000428100054	3
2	274	3.000486100054	2
2	326	4.00006413341	3
2	331	4.00009813341	2
2	336	4.00024813341	3
2	340	4.00030613341	2
2	392	5.000064166767	3
2	397	5.000098166767	2
2	402	5.000308166767	3
2	406	5.000366166767	2
2	458	6.000064169447	3
2	463	6.000098169447	2
2	468	6.000528169447	3
2	472	6.000586169447	2
2	524	7.000064178166	3
2	529	7.000098178166	2
2	534	7.000248178166	3
2	538	7.000306178166	2
2	590	8.000064192353	3
2	595	8.000098192353	2
2	600	8.000448192353	3
2	604	8.000506192353	2
2	656	9.000064210905	3
2	661	9.000098210905	2
2	666	9.000208210905	3
2	670	9.000266210905	2
2	722	10.000064232783	3
2	727	10.000098232783	2
2	732	10.000528232783	3
2	736	10.000586232783	2
2	788	11.000064257138	3
2	793	11.000098257138	2
2	798	11.000528257138	3
2	802	11.000586257138	2
2	854	12.000064283333	3
2	859	12.000098283333	2
2	864	12.000168283333	3
2	868	12.000226283333	2
2	920	13.000064310902	3
2	925	13.000098310902	2
2	930	13.000548310902	3
2	934	13.000606310902	2
2	986	14.000064339512	3
2	991	14.000098339512	2
2	996	14.000708339512	3
2	1000	14.000766339512	2
2	1052	15.00006436892	3
2	1057	15.00009836892	2
2	1062	15.00026836892	3
2	1066	15.00032636892	2
2	1118	16.000064398949	3
2	1123	16.000098398949	2
2	1128	16.000348398949	3
2	1132	16.000406398949	2
2	3279	39.251004747152	3
2	3283	39.251058747152	2
2	3289	39.251732747152	3
2	3293	39.251786747152	2
2	3299	39.254300747152	3
2	3303	39.254354747152	2
2	3309	39.257028747152	3
2	3313	39.257082747152	2
2	3320	39.261636747152	3
2	3324	39.261690747152	2
2	3334	39.279504747152	3
2	3338	39.279558747152	2
2	3345	39.295892747152	3
2	3349	39.295946747152	2
2	3453	40.251004747152	3
2	3457	40.251058747152	2
2	3463	40.251852747152	3
2	3467	40.251906747152	2
2	3473	40.253720747152	3
2	3477	40.253774747152	2
2	3483	40.258948747152	3
2	3487	40.259002747152	2
2	3495	40.262876747152	3
2	3499	40.262930747152	2
2	3508	40.277204747152	3
2	3512	40.277258747152	2
2	3519	40.291892747152	3
2	3523	40.291946747152	2
2	3627	41.251004747152	3
2	3631	41.251058747152	2
2	3638	41.264512747152	3
2	3642	41.264566747152	2
2	3649	41.277120747152	3
2	3653	41.277174747152	2
2	3659	41.287028747152	3
2	3663	41.287082747152	2
2	3672	41.302576747152	3
2	3676	41.302630747152	2
2	3683	41.313504747152	3
2	3687	41.313558747152	2
2	3694	41.333232747152	3
2	3698	41.333286747152	2
2	3801	42.251004747152	3
2	3805	42.251058747152	2
2	3812	42.267292747152	3
2	3816	42.267346747152	2
2	3822	42.275300747152	3
2	3826	42.275354747152	2
2	3832	42.276908747152	3
2	3836	42.276962747152	2
2	3843	42.282996747152	3
2	3847	42.283050747152	2
2	3857	42.301524747152	3
2	3861	42.301578747152	2
2	3868	42.319652747152	3
2	3872	42.319706747152	2
2	3975	43.251004747152	3
2	3979	43.251058747152	2
2	3985	43.255132747152	3
2	3989	43.255186747152	2
2	3996	43.263740747152	3
2	4000	43.263794747152	2
2	4006	43.265108747152	3
2	4010	43.265162747152	2
2	4017	43.272076747152	3
2	4021	43.272130747152	2
2	4030	43.289524747152	3
2	4034	43.289578747152	2
2	4040	43.290552747152	3
2	4044	43.290606747152	2
2	4149	44.251004747152	3
2	4153	44.251058747152	2
2	4159	44.256952747152	3
2	4163	44.257006747152	2
2	4169	44.261040747152	3
2	4174	44.261094747152	2
2	4182	44.279068747152	3
2	4186	44.279122747152	2
2	4193	44.298196747152	3
2	4197	44.298250747152	2
2	4204	44.303424747152	3
2	4208	44.303478747152	2
2	4214	44.305172747152	3
2	4218	44.305226747152	2
2	4323	45.251004747152	3
2	4327	45.251058747152	2
2	4334	45.268832747152	3
2	4338	45.268886747152	2
2	4345	45.285060747152	3
2	4349	45.285114747152	2
2	4355	45.288728747152	3
2	4359	45.288782747152	2
2	4367	45.299616747152	3
2	4371	45.299670747152	2
2	4378	45.306224747152	3
2	4382	45.306278747152	2
2	4390	45.323792747152	3
2	4394	45.323846747152	2
2	4497	46.251004747152	3
2	4501	46.251058747152	2
2	4507	46.257952747152	3
2	4511	46.258006747152	2
2	4519	46.268280747152	3
2	4523	46.268334747152	2
2	4530	46.278708747152	3
2	4534	46.278762747152	2
2	4540	46.280236747152	3
2	4544	46.280290747152	2
2	4550	46.287524747152	3
2	4554	46.287578747152	2
2	4564	46.305832747152	3
2	4568	46.305886747152	2
2	4671	47.251004747152	3
2	4675	47.251058747152	2
2	4682	47.264392747152	3
2	4686	47.264446747152	2
2	4692	47.272820747152	3
2	4696	47.272874747152	2
2	4704	47.286108747152	3
2	4708	47.286162747152	2
2	4716	47.300456747152	3
2	4720	47.300510747152	2
2	4727	47.319944747152	3
2	4731	47.319998747152	2
2	4737	47.325572747152	3
2	4741	47.325626747152	2
2	4845	48.251004747152	3
2	4849	48.251058747152	2
2	4856	48.261112747152	3
2	4860	48.261166747152	2
2	4866	48.270860747152	3
2	4870	48.270914747152	2
2	4878	48.290748747152	3
2	4882	48.290802747152	2
2	4888	48.297476747152	3
2	4892	48.297530747152	2
2	4901	48.308424747152	3
2	4905	48.308478747152	2
2	4912	48.328632747152	3
2	4916	48.328686747152	2
2	5019	49.251004747152	3
2	5023	49.251058747152	2
2	5030	49.261872747152	3
2	5034	49.261926747152	2
2	5041	49.274580747152	3
2	5045	49.274634747152	2
2	5051	49.278548747152	3
2	5055	49.278602747152	2
2	5061	49.282596747152	3
2	5065	49.282650747152	2
2	5073	49.288884747152	3
2	5077	49.288938747152	2
2	5083	49.291752747152	3
2	5087	49.291806747152	2
2	5193	50.251004747152	3
2	5197	50.251058747152	2
2	5203	50.252892747152	3
2	5207	50.252946747152	2
2	5213	50.253300747152	3
2	5217	50.253354747152	2
2	5223	50.259728747152	3
2	5227	50.259782747152	2
2	5237	50.271736747152	3
2	5241	50.271790747152	2
2	5247	50.274284747152	3
2	5251	50.274338747152	2
2	5259	50.292112747152	3
2	5263	50.292166747152	2
2	5367	51.251004747152	3
2	5371	51.251058747152	2
2	5377	51.256832747152	3
2	5381	51.256886747152	2
2	5388	51.262500747152	3
2	5392	51.262554747152	2
2	5400	51.282208747152	3
2	5404	51.282262747152	2
2	5410	51.288836747152	3
2	5414	51.288890747152	2
2	5422	51.299664747152	3
2	5426	51.299718747152	2
2	5433	51.304352747152	3
2	5437	51.304406747152	2
2	5541	52.251004747152	3
2	5545	52.251058747152	2
2	5551	52.260412747152	3
2	5555	52.260466747152	2
2	5563	52.279540747152	3
2	5567	52.279594747152	2
2	5573	52.282468747152	3
2	5577	52.282522747152	2
2	5583	52.282696747152	3
2	5587	52.282750747152	2
2	5594	52.291304747152	3
2	5598	52.291358747152	2
2	5606	52.298412747152	3
2	5610	52.298466747152	2
2	5715	53.251004747152	3
2	5719	53.251058747152	2
2	5726	53.266872747152	3
2	5730	53.266926747152	2
2	5736	53.274480747152	3
2	5740	53.274534747152	2
2	5747	53.280428747152	3
2	5751	53.280482747152	2
2	5759	53.291836747152	3
2	5763	53.291890747152	2
2	5771	53.305384747152	3
2	5775	53.305438747152	2
2	5781	53.314272747152	3
2	5785	53.314326747152	2
2	5889	54.251004747152	3
2	5893	54.251058747152	2
2	5899	54.260952747152	3
2	5903	54.261006747152	2
2	5910	54.262160747152	3
2	5914	54.262214747152	2
2	5922	54.278628747152	3
2	5926	54.278682747152	2
2	5932	54.280656747152	3
2	5936	54.280710747152	2
2	5942	54.281984747152	3
2	5946	54.282038747152	2
2	5953	54.288852747152	3
2	5957	54.288906747152	2
2	6063	55.251004747152	3
2	6067	55.251058747152	2
2	6074	55.267912747152	3
2	6078	55.267966747152	2
2	6085	55.279060747152	3
2	6089	55.279114747152	2
2	6096	55.292788747152	3
2	6100	55.292842747152	2
2	6108	55.305896747152	3
2	6112	55.305950747152	2
2	6118	55.306304747152	3
2	6122	55.306358747152	2
2	6130	55.326772747152	3
2	6134	55.326826747152	2
2	6237	56.251004747152	3
2	6241	56.251058747152	2
2	6247	56.255332747152	3
2	6251	56.255386747152	2
2	6258	56.264580747152	3
2	6262	56.264634747152	2
2	6269	56.274088747152	3
2	6273	56.274142747152	2
2	6280	56.283696747152	3
2	6284	56.283750747152	2
2	6293	56.303084747152	3
2	6297	56.303138747152	2
2	6304	56.314672747152	3
2	6308	56.314726747152	2
2	6411	57.251004747152	3
2	6415	57.251058747152	2
2	6421	57.258012747152	3
2	6425	57.258066747152	2
2	6433	57.269000747152	3
2	6437	57.269054747152	2
2	6444	57.280468747152	3
2	6448	57.280522747152	2
2	6454	57.283676747152	3
2	6458	57.283730747152	2
2	6466	57.299584747152	3
2	6470	57.299638747152	2
2	6477	57.306792747152	3
2	6481	57.306846747152	2
2	6585	58.251004747152	3
2	6589	58.251058747152	2
2	6596	58.268232747152	3
2	6600	58.268286747152	2
2	6607	58.278420747152	3
2	6611	58.278474747152	2
2	6617	58.278708747152	3
2	6621	58.278762747152	2
2	6629	58.291196747152	3
2	6633	58.291250747152	2
2	6641	58.311524747152	3
2	6645	58.311578747152	2
2	6651	58.314412747152	3
2	6655	58.314466747152	2
2	6759	59.251004747152	3
2	6763	59.251058747152	2
2	6769	59.253672747152	3
2	6773	59.253726747152	2
2	6781	59.270020747152	3
2	6785	59.270074747152	2
2	6792	59.281708747152	3
2	6796	59.281762747152	2
2	6803	59.292496747152	3
2	6807	59.292550747152	2
2	6815	59.308724747152	3
2	6819	59.308778747152	2
2	6825	59.315352747152	3
2	6829	59.315406747152	2
2	6933	60.251004747152	3
2	6937	60.251058747152	2
2	6944	60.269692747152	3
2	6948	60.269746747152	2
2	6955	60.288160747152	3
2	6959	60.288214747152	2
2	6965	60.297388747152	3
2	6969	60.297442747152	2
2	6977	60.302836747152	3
2	6981	60.302890747152	2
2	6988	60.311864747152	3
2	6992	60.311918747152	2
2	7000	60.324072747152	3
2	7004	60.324126747152	2
2	7107	61.251004747152	3
2	7111	61.251058747152	2
2	7118	61.264012747152	3
2	7122	61.264066747152	2
2	7129	61.282320747152	3
2	7133	61.282374747152	2
2	7139	61.287028747152	3
2	7143	61.287082747152	2
2	7152	61.303696747152	3
2	7156	61.303750747152	2
2	7163	61.321784747152	3
2	7167	61.321838747152	2
2	7173	61.329312747152	3
2	7177	61.329366747152	2
2	7281	62.251004747152	3
2	7285	62.251058747152	2
2	7292	62.268932747152	3
2	7296	62.268986747152	2
2	7303	62.282680747152	3
2	7307	62.282734747152	2
2	7313	62.291708747152	3
2	7317	62.291762747152	2
2	7325	62.300196747152	3
2	7329	62.300250747152	2
2	7336	62.306024747152	3
2	7340	62.306078747152	2
2	7348	62.322892747152	3
2	7352	62.322946747152	2
2	7455	63.251004747152	3
2	7459	63.251058747152	2
2	7466	63.263892747152	3
2	7470	63.263946747152	2
2	7477	63.276160747152	3
2	7481	63.276214747152	2
2	7487	63.277748747152	3
2	7491	63.277802747152	2
2	7497	63.282816747152	3
2	7501	63.282870747152	2
2	7511	63.300004747152	3
2	7515	63.300058747152	2
2	7521	63.302852747152	3
2	7525	63.302906747152	2
2	7629	64.251004747152	3
2	7633	64.251058747152	2
2	7639	64.256272747152	3
2	7643	64.256326747152	2
2	7651	64.269320747152	3
2	7655	64.269374747152	2
2	7661	64.276408747152	3
2	7665	64.276462747152	2
2	7671	64.278696747152	3
2	7675	64.278750747152	2
2	7684	64.297364747152	3
2	7688	64.297418747152	2
2	7696	64.316892747152	3
2	7700	64.316946747152	2
2	7803	65.251004747152	3
2	7807	65.251058747152	2
2	7814	65.264972747152	3
2	7818	65.265026747152	2
2	7825	65.276120747152	3
2	7829	65.276174747152	2
2	7835	65.278048747152	3
2	7839	65.278102747152	2
2	7845	65.279676747152	3
2	7849	65.279730747152	2
2	7858	65.289804747152	3
2	7862	65.289858747152	2
2	7870	65.304712747152	3
2	7874	65.304766747152	2
2	7977	66.251004747152	3
2	7981	66.251058747152	2
2	7987	66.259712747152	3
2	7991	66.259766747152	2
2	7999	66.276400747152	3
2	8003	66.276454747152	2
2	8010	66.293048747152	3
2	8014	66.293102747152	2
2	8022	66.306996747152	3
2	8026	66.307050747152	2
2	8032	66.310604747152	3
2	8036	66.310658747152	2
2	8044	66.325652747152	3
2	8048	66.325706747152	2
2	8151	67.251004747152	3
2	8155	67.251058747152	2
2	8162	67.270652747152	3
2	8166	67.270706747152	2
2	8172	67.278300747152	3
2	8176	67.278354747152	2
2	8184	67.291968747152	3
2	8188	67.292022747152	2
2	8196	67.309576747152	3
2	8200	67.309630747152	2
2	8207	67.323764747152	3
2	8211	67.323818747152	2
2	8218	67.334232747152	3
2	8222	67.334286747152	2
2	8325	68.251004747152	3
2	8329	68.251058747152	2
2	8336	68.270172747152	3
2	8340	68.270226747152	2
2	8347	68.281080747152	3
2	8351	68.281134747152	2
2	8357	68.288708747152	3
2	8361	68.288762747152	2
2	8367	68.289296747152	3
2	8371	68.289350747152	2
2	8378	68.298644747152	3
2	8382	68.298698747152	2
2	8392	68.313172747152	3
2	8396	68.313226747152	2
2	8499	69.251004747152	3
2	8503	69.251058747152	2
2	8509	69.253232747152	3
2	8513	69.253286747152	2
2	8521	69.266180747152	3
2	8525	69.266234747152	2
2	8531	69.274208747152	3
2	8535	69.274262747152	2
2	8543	69.293776747152	3
2	8547	69.293830747152	2
2	8555	69.312104747152	3
2	8559	69.312158747152	2
2	8565	69.318792747152	3
2	8569	69.318846747152	2
2	8673	70.251004747152	3
2	8677	70.251058747152	2
2	8684	70.263032747152	3
2	8688	70.263086747152	2
2	8694	70.271000747152	3
2	8698	70.271054747152	2
2	8705	70.275548747152	3
2	8709	70.275602747152	2
2	8717	70.292356747152	3
2	8721	70.292410747152	2
2	8729	70.306124747152	3
2	8733	70.306178747152	2
2	8740	70.322952747152	3
2	8744	70.323006747152	2
2	8847	71.251004747152	3
2	8851	71.251058747152	2
2	8858	71.261312747152	3
2	8862	71.261366747152	2
2	8868	71.264940747152	3
2	8872	71.264994747152	2
2	8880	71.277188747152	3
2	8884	71.277242747152	2
2	8891	71.289856747152	3
2	8895	71.289910747152	2
2	8903	71.303464747152	3
2	8907	71.303518747152	2
2	8914	71.319212747152	3
2	8918	71.319266747152	2
2	9021	72.251004747152	3
2	9025	72.251058747152	2
2	9031	72.254252747152	3
2	9035	72.254306747152	2
2	9043	72.268320747152	3
2	9047	72.268374747152	2
2	9053	72.270868747152	3
2	9057	72.270922747152	2
2	9063	72.277436747152	3
2	9067	72.277490747152	2
2	9075	72.286544747152	3
2	9079	72.286598747152	2
2	9088	72.300872747152	3
2	9092	72.300926747152	2
2	9195	73.251004747152	3
2	9199	73.251058747152	2
2	9206	73.262792747152	3
2	9210	73.262846747152	2
2	9217	73.276140747152	3
2	9221	73.276194747152	2
2	9228	73.294328747152	3
2	9232	73.294382747152	2
2	9240	73.310396747152	3
2	9244	73.310450747152	2
2	9251	73.323084747152	3
2	9255	73.323138747152	2
2	9262	73.341272747152	3
2	9266	73.341326747152	2
2	9369	74.251004747152	3
2	9373	74.251058747152	2
2	9380	74.265032747152	3
2	9384	74.265086747152	2
2	9391	74.282080747152	3
2	9395	74.282134747152	2
2	9403	74.300568747152	3
2	9407	74.300622747152	2
2	9414	74.310856747152	3
2	9418	74.310910747152	2
2	9425	74.324424747152	3
2	9429	74.324478747152	2
2	9436	74.336432747152	3
2	9440	74.336486747152	2
2	9543	75.251004747152	3
2	9547	75.251058747152	2
2	9554	75.270792747152	3
2	9558	75.270846747152	2
2	9564	75.278940747152	3
2	9568	75.278994747152	2
2	9575	75.282148747152	3
2	9579	75.282202747152	2
2	9588	75.302416747152	3
2	9592	75.302470747152	2
2	9598	75.304944747152	3
2	9602	75.304998747152	2
2	9610	75.318632747152	3
2	9614	75.318686747152	2
2	9717	76.251004747152	3
2	9721	76.251058747152	2
2	9728	76.267752747152	3
2	9732	76.267806747152	2
2	9739	76.279580747152	3
2	9743	76.279634747152	2
2	9749	76.283708747152	3
2	9753	76.283762747152	2
2	9762	76.300116747152	3
2	9766	76.300170747152	2
2	9772	76.302924747152	3
2	9776	76.302978747152	2
2	9784	76.314252747152	3
2	9788	76.314306747152	2
2	9891	77.251004747152	3
2	9895	77.251058747152	2
2	9902	77.265512747152	3
2	9906	77.265566747152	2
2	9913	77.282660747152	3
2	9917	77.282714747152	2
2	9923	77.286748747152	3
2	9927	77.286802747152	2
2	9936	77.300856747152	3
2	9940	77.300910747152	2
2	9947	77.319004747152	3
2	9951	77.319058747152	2
2	9957	77.319492747152	3
2	9961	77.319546747152	2
2	10065	78.251004747152	3
2	10069	78.251058747152	2
2	10075	78.259932747152	3
2	10079	78.259986747152	2
2	10087	78.273360747152	3
2	10091	78.273414747152	2
2	10098	78.286968747152	3
2	10102	78.287022747152	2
2	10110	78.305396747152	3
2	10114	78.305450747152	2
2	10121	78.322844747152	3
2	10125	78.322898747152	2
2	10131	78.332232747152	3
2	10135	78.332286747152	2
2	10239	79.251004747152	3
2	10243	79.251058747152	2
2	10249	79.254292747152	3
2	10253	79.254346747152	2
2	10261	79.264920747152	3
2	10265	79.264974747152	2
2	10272	79.277668747152	3
2	10276	79.277722747152	2
2	10283	79.294096747152	3
2	10287	79.294150747152	2
2	10295	79.311964747152	3
2	10299	79.312018747152	2
2	10305	79.317872747152	3
2	10309	79.317926747152	2
2	10413	80.251004747152	3
2	10417	80.251058747152	2
2	10424	80.263592747152	3
2	10428	80.263646747152	2
2	10435	80.275260747152	3
2	10439	80.275314747152	2
2	10445	80.282048747152	3
2	10449	80.282102747152	2
2	10457	80.299916747152	3
2	10461	80.299970747152	2
2	10469	80.311764747152	3
2	10473	80.311818747152	2
2	10479	80.314832747152	3
2	10483	80.314886747152	2
2	10587	81.251004747152	3
2	10591	81.251058747152	2
2	10598	81.270712747152	3
2	10602	81.270766747152	2
2	10608	81.274440747152	3
2	10612	81.274494747152	2
2	10620	81.285808747152	3
2	10624	81.285862747152	2
2	10630	81.287376747152	3
2	10634	81.287430747152	2
2	10643	81.304684747152	3
2	10647	81.304738747152	2
2	10653	81.313492747152	3
2	10657	81.313546747152	2
2	10761	82.251004747152	3
2	10765	82.251058747152	2
2	10771	82.251992747152	3
2	10775	82.252046747152	2
2	10783	82.262100747152	3
2	10787	82.262154747152	2
2	10793	82.262808747152	3
2	10797	82.262862747152	2
2	10803	82.271156747152	3
2	10807	82.271210747152	2
2	10816	82.288404747152	3
2	10820	82.288458747152	2
2	10826	82.292152747152	3
2	10830	82.292206747152	2
2	10935	83.251004747152	3
2	10939	83.251058747152	2
2	10946	83.268852747152	3
2	10950	83.268906747152	2
2	10957	83.281240747152	3
2	10961	83.281294747152	2
2	10967	83.283188747152	3
2	10971	83.283242747152	2
2	10977	83.284696747152	3
2	10981	83.284750747152	2
2	10990	83.297184747152	3
2	10994	83.297238747152	2
2	11002	83.307772747152	3
2	11006	83.307826747152	2
2	11109	84.251004747152	3
2	11113	84.251058747152	2
2	11119	84.255492747152	3
2	11123	84.255546747152	2
2	11130	84.261760747152	3
2	11134	84.261814747152	2
2	11141	84.268788747152	3
2	11145	84.268842747152	2
2	11152	84.273136747152	3
2	11156	84.273190747152	2
2	11164	84.289044747152	3
2	11168	84.289098747152	2
2	11176	84.303872747152	3
2	11180	84.303926747152	2
2	11283	85.251004747152	3
2	11287	85.251058747152	2
2	11294	85.264312747152	3
2	11298	85.264366747152	2
2	11305	85.278600747152	3
2	11309	85.278654747152	2
2	11315	85.282188747152	3
2	11319	85.282242747152	2
2	11327	85.296796747152	3
2	11331	85.296850747152	2
2	11338	85.302964747152	3
2	11342	85.303018747152	2
2	11350	85.319552747152	3
2	11354	85.319606747152	2
2	11457	86.251004747152	3
2	11461	86.251058747152	2
2	11467	86.252152747152	3
2	11471	86.252206747152	2
2	11477	86.257140747152	3
2	11481	86.257194747152	2
2	11490	86.274688747152	3
2	11494	86.274742747152	2
2	11500	86.275236747152	3
2	11504	86.275290747152	2
2	11512	86.289044747152	3
2	11516	86.289098747152	2
2	11524	86.301792747152	3
2	11528	86.301846747152	2
2	11631	87.251004747152	3
2	11635	87.251058747152	2
2	11641	87.254172747152	3
2	11645	87.254226747152	2
2	11653	87.272480747152	3
2	11657	87.272534747152	2
2	11664	87.290648747152	3
2	11668	87.290702747152	2
2	11674	87.291556747152	3
2	11678	87.291610747152	2
2	11687	87.307084747152	3
2	11691	87.307138747152	2
2	11697	87.312552747152	3
2	11701	87.312606747152	2
2	11805	88.251004747152	3
2	11809	88.251058747152	2
2	11816	88.264952747152	3
2	11820	88.265006747152	2
2	11827	88.281480747152	3
2	11831	88.281534747152	2
2	11837	88.286788747152	3
2	11841	88.286842747152	2
2	11848	88.293576747152	3
2	11852	88.293630747152	2
2	11861	88.307104747152	3
2	11865	88.307158747152	2
2	11872	88.317672747152	3
2	11876	88.317726747152	2
2	11979	89.251004747152	3
2	11983	89.251058747152	2
2	11989	89.257792747152	3
2	11993	89.257846747152	2
2	12001	89.269120747152	3
2	12005	89.269174747152	2
2	12012	89.281028747152	3
2	12016	89.281082747152	2
2	12023	89.294396747152	3
2	12027	89.294450747152	2
2	12033	89.296944747152	3
2	12037	89.296998747152	2
2	12046	89.312812747152	3
2	12050	89.312866747152	2
2	12153	90.251004747152	3
2	12157	90.251058747152	2
2	12164	90.262192747152	3
2	12168	90.262246747152	2
2	12175	90.280780747152	3
2	12179	90.280834747152	2
2	12185	90.284088747152	3
2	12189	90.284142747152	2
2	12196	90.292016747152	3
2	12200	90.292070747152	2
2	12207	90.295024747152	3
2	12211	90.295078747152	2
2	12220	90.314352747152	3
2	12224	90.314406747152	2
2	12327	91.251004747152	3
2	12331	91.251058747152	2
2	12337	91.259032747152	3
2	12341	91.259086747152	2
2	12348	91.267100747152	3
2	12352	91.267154747152	2
2	12360	91.279348747152	3
2	12364	91.279402747152	2
2	12371	91.296136747152	3
2	12375	91.296190747152	2
2	12382	91.304544747152	3
2	12386	91.304598747152	2
2	12393	91.311612747152	3
2	12397	91.311666747152	2
2	12501	92.251004747152	3
2	12505	92.251058747152	2
2	12511	92.260352747152	3
2	12515	92.260406747152	2
2	12522	92.263580747152	3
2	12526	92.263634747152	2
2	12534	92.278788747152	3
2	12538	92.278842747152	2
2	12544	92.280596747152	3
2	12548	92.280650747152	2
2	12556	92.298904747152	3
2	12560	92.298958747152	2
2	12568	92.319012747152	3
2	12572	92.319066747152	2
2	12675	93.251004747152	3
2	12679	93.251058747152	2
2	12686	93.262612747152	3
2	12690	93.262666747152	2
2	12696	93.269220747152	3
2	12700	93.269274747152	2
2	12706	93.272248747152	3
2	12710	93.272302747152	2
2	12719	93.289996747152	3
2	12723	93.290050747152	2
2	12729	93.299284747152	3
2	12733	93.299338747152	2
2	12742	93.311352747152	3
2	12746	93.311406747152	2
2	12849	94.251004747152	3
2	12853	94.251058747152	2
2	12860	94.261572747152	3
2	12864	94.261626747152	2
2	12870	94.271560747152	3
2	12874	94.271614747152	2
2	12881	94.275508747152	3
2	12885	94.275562747152	2
2	12891	94.277236747152	3
2	12895	94.277290747152	2
2	12904	94.292224747152	3
2	12908	94.292278747152	2
2	12914	94.296492747152	3
2	12918	94.296546747152	2
2	13023	95.251004747152	3
2	13027	95.251058747152	2
2	13034	95.261332747152	3
[...]
94	17758	3.9	0
94	17758	4	0
94	17758	4.1	0
94	17758	4.2	0
94	17758	4.3	0
94	17758	4.4	0
94	17758	4.5	0
94	17758	4.6	0
94	17758	4.7	0
94	17758	4.8	0
94	17758	4.9	0
94	17758	5	0
94	17758	5.1	0
94	17758	5.2	0
94	17758	5.3	0
94	17758	5.4	0
94	17758	5.5	0
94	17758	5.6	0
94	17758	5.7	0
94	17758	5.8	0
94	17758	5.9	0
94	17758	6	0
94	17758	6.1	0
94	17758	6.2	0
94	17758	6.3	0
94	17758	6.4	0
94	17758	6.5	0
94	17758	6.6	0
94	17758	6.7	0
94	17758	6.8	0
94	17758	6.9	0
94	17758	7	0
94	17758	7.1	0
94	17758	7.2	0
94	17758	7.3	0
94	17758	7.4	0
94	17758	7.5	0
94	17758	7.6	0
94	17758	7.7	0
94	17758	7.8	0
94	17758	7.9	0
94	17758	8	0
94	17758	8.1	0
94	17758	8.2	0
94	17758	8.3	0
94	17758	8.4	0
94	17758	8.5	0
94	17758	8.6	0
94	17758	8.7	0
94	17758	8.8	0
94	17758	8.9	0
94	17758	9	0
94	17758	9.1	0
94	17758	9.2	0
94	17758	9.3	0
94	17758	9.4	0
94	17758	9.5	0
94	17758	9.6	0
94	17758	9.7	0
94	17758	9.8	0
94	17758	9.9	0
94	17758	10	0
94	17758	10.1	0
94	17758	10.2	0
94	17758	10.3	0
94	17758	10.4	0
94	17758	10.5	0
94	17758	10.6	0
94	17758	10.7	0
94	17758	10.8	0
94	17758	10.9	0
94	17758	11	0
94	17758	11.1	0
94	17758	11.2	0
94	17758	11.3	0
94	17758	11.4	0
94	17758	11.5	0
94	17758	11.6	0
94	17758	11.7	0
94	17758	11.8	0
94	17758	11.9	0
94	17758	12	0
94	17758	12.1	0
94	17758	12.2	0
94	17758	12.3	0
94	17758	12.4	0
94	17758	12.5	0
94	17758	12.6	0
94	17758	12.7	0
94	17758	12.8	0
94	17758	12.9	0
94	17758	13	0
94	17758	13.1	0
94	17758	13.2	0
94	17758	13.3	0
94	17758	13.4	0
94	17758	13.5	0
94	17758	13.6	0
94	17758	13.7	0
94	17758	13.8	0
94	17758	13.9	0
94	17758	14	0
94	17758	14.1	0
94	17758	14.2	0
94	17758	14.3	0
94	17758	14.4	0
94	17758	14.5	0
94	17758	14.6	0
94	17758	14.7	0
94	17758	14.8	0
94	17758	14.9	0
94	17758	15	0
94	17758	15.1	0
94	17758	15.2	0
94	17758	15.3	0
94	17758	15.4	0
94	17758	15.5	0
94	17758	15.6	0
94	17758	15.7	0
94	17758	15.8	0
94	17758	15.9	0
94	17758	16	0
94	17758	16.1	0
94	17758	16.2	0
94	17758	16.3	0
94	17758	16.4	0
94	17758	16.5	0
94	17758	16.6	0
94	17758	16.7	0
94	17758	16.8	0
94	17758	16.9	0
94	17758	17	0
94	17758	17.1	0
94	17758	17.2	0
94	17758	17.3	0
94	17758	17.4	0
94	17758	17.5	0
94	17758	17.6	0
94	17758	17.7	0
94	17758	17.8	0
94	17758	17.9	0
94	17758	18	0
94	17758	18.1	0
94	17758	18.2	0
94	17758	18.3	0
94	17758	18.4	0
94	17758	18.5	0
94	17758	18.6	0
94	17758	18.7	0
94	17758	18.8	0
94	17758	18.9	0
94	17758	19	0
94	17758	19.1	0
94	17758	19.2	0
94	17758	19.3	0
94	17758	19.4	0
94	17758	19.5	0
94	17758	19.6	0
94	17758	19.7	0
94	17758	19.8	0
94	17758	19.9	0
94	17758	20	0
94	17758	20.1	0
94	17758	20.2	0
94	17758	20.3	0
94	17758	20.4	0
94	17758	20.5	0
94	17758	20.6	0
94	17758	20.7	0
94	17758	20.8	0
94	17758	20.9	0
94	17758	21	0
94	17758	21.1	0
94	17758	21.2	0
94	17758	21.3	0
94	17758	21.4	0
94	17758	21.5	0
94	17758	21.6	0
94	17758	21.7	0
94	17758	21.8	0
94	17758	21.9	0
94	17758	22	0
94	17758	22.1	0
94	17758	22.2	0
94	17758	22.3	0
94	17758	22.4	0
94	17758	22.5	0
94	17758	22.6	0
94	17758	22.7	0
94	17758	22.8	0
94	17758	22.9	0
94	17758	23	0
94	17758	23.1	0
94	17758	23.2	0
94	17758	23.3	0
94	17758	23.4	0
94	17758	23.5	0
94	17758	23.6	0
94	17758	23.7	0
94	17758	23.8	0
94	17758	23.9	0
94	17758	24	0
94	17758	24.1	0
94	17758	24.2	0
94	17758	24.3	0
94	17758	24.4	0
94	17758	24.5	0
94	17758	24.6	0
94	17758	24.7	0
94	17758	24.8	0
94	17758	24.9	0
94	17758	25	0
94	17758	25.1	0
94	17758	25.2	0
94	17758	25.3	0
94	17758	25.4	0
94	17758	25.5	0
94	17758	25.6	0
94	17758	25.7	0
94	17758	25.8	0
94	17758	25.9	0
94	17758	26	0
94	17758	26.1	0
94	17758	26.2	0
94	17758	26.3	0
94	17758	26.4	0
94	17758	26.5	0
94	17758	26.6	0
94	17758	26.7	0
94	17758	26.8	0
94	17758	26.9	0
94	17758	27	0
94	17758	27.1	0
94	17758	27.2	0
94	17758	27.3	0
94	17758	27.4	0
94	17758	27.5	0
94	17758	27.6	0
94	17758	27.7	0
94	17758	27.8	0
94	17758	27.9	0
94	17758	28	0
94	17758	28.1	0
94	17758	28.2	0
94	17758	28.3	0
94	17758	28.4	0
94	17758	28.5	0
94	17758	28.6	0
94	17758	28.7	0
94	17758	28.8	0
94	17758	28.9	0
94	17758	29	0
94	17758	29.1	0
94	17758	29.2	0
94	17758	29.3	0
94	17758	29.4	0
94	17758	29.5	0
94	17758	29.6	0
94	17758	29.7	0
94	17758	29.8	0
94	17758	29.9	0
94	17758	30	0
94	17758	30.1	0
94	17758	30.2	0
94	17758	30.3	0
94	17758	30.4	0
94	17758	30.5	0
94	17758	30.6	0
94	17758	30.7	0
94	17758	30.8	0
94	17758	30.9	0
94	17758	31	0
94	17758	31.1	0
94	17758	31.2	0
94	17758	31.3	0
94	17758	31.4	0
94	17758	31.5	0
94	17758	31.6	0
94	17758	31.7	0
94	17758	31.8	0
94	17758	31.9	0
94	17758	32	0
94	17758	32.1	0
94	17758	32.2	0
94	17758	32.3	0
94	17758	32.4	0
94	17758	32.5	0
94	17758	32.6	0
94	17758	32.7	0
94	17758	32.8	0
94	17758	32.9	0
94	17758	33	0
94	17758	33.1	0
94	17758	33.2	0
94	17758	33.3	0
94	17758	33.4	0
94	17758	33.5	0
94	17758	33.6	0
94	17758	33.7	0
94	17758	33.8	0
94	17758	33.9	0
94	17758	34	0
94	17758	34.1	0
94	17758	34.2	0
94	17758	34.3	0
94	17758	34.4	0
94	17758	34.5	0
94	17758	34.6	0
94	17758	34.7	0
94	17758	34.8	0
94	17758	34.9	0
94	17758	35	0
94	17758	35.1	0
94	17758	35.2	0
94	17758	35.3	0
94	17758	35.4	0
94	17758	35.5	0
94	17758	35.6	0
94	17758	35.7	0
94	17758	35.8	0
94	17758	35.9	0
94	17758	36	0
94	17758	36.1	0
94	17758	36.2	0
94	17758	36.3	0
94	17758	36.4	0
94	17758	36.5	0
94	17758	36.6	0
94	17758	36.7	0
94	17758	36.8	0
94	17758	36.9	0
94	17758	37	0
94	17758	37.1	0
94	17758	37.2	0
94	17758	37.3	0
94	17758	37.4	0
94	17758	37.5	0
94	17758	37.6	0
94	17758	37.7	0
94	17758	37.8	0
94	17758	37.9	0
94	17758	38	0
94	17758	38.1	0
94	17758	38.2	0
94	17758	38.3	0
94	17758	38.4	0
94	17758	38.5	0
94	17758	38.6	0
94	17758	38.7	0
94	17758	38.8	0
94	17758	38.9	0
94	17758	39	0
94	17758	39.1	0
94	17758	39.2	0
94	17758	39.3	0
94	17758	39.4	0
94	17758	39.5	0
94	17758	39.6	0
94	17758	39.7	0
94	17758	39.8	0
94	17758	39.9	0
94	17758	40	0
94	17758	40.1	0
94	17758	40.2	0
94	17758	40.3	0
94	17758	40.4	0
94	17758	40.5	0
94	17758	40.6	0
94	17758	40.7	0
94	17758	40.8	0
94	17758	40.9	0
94	17758	41	0
94	17758	41.1	0
94	17758	41.2	0
94	17758	41.3	0
94	17758	41.4	0
94	17758	41.5	0
94	17758	41.6	0
94	17758	41.7	0
94	17758	41.8	0
94	17758	41.9	0
94	17758	42	0
94	17758	42.1	0
94	17758	42.2	0
94	17758	42.3	0
94	17758	42.4	0
94	17758	42.5	0
94	17758	42.6	0
94	17758	42.7	0
94	17758	42.8	0
94	17758	42.9	0
94	17758	43	0
94	17758	43.1	0
94	17758	43.2	0
94	17758	43.3	0
94	17758	43.4	0
94	17758	43.5	0
94	17758	43.6	0
94	17758	43.7	0
94	17758	43.8	0
94	17758	43.9	0
94	17758	44	0
94	17758	44.1	0
94	17758	44.2	0
94	17758	44.3	0
94	17758	44.4	0
94	17758	44.5	0
94	17758	44.6	0
94	17758	44.7	0
94	17758	44.8	0
94	17758	44.9	0
94	17758	45	0
94	17758	45.1	0
94	17758	45.2	0
94	17758	45.3	0
94	17758	45.4	0
94	17758	45.5	0
94	17758	45.6	0
94	17758	45.7	0
94	17758	45.8	0
94	17758	45.9	0
94	17758	46	0
94	17758	46.1	0
94	17758	46.2	0
94	17758	46.3	0
94	17758	46.4	0
94	17758	46.5	0
94	17758	46.6	0
94	17758	46.7	0
94	17758	46.8	0
94	17758	46.9	0
94	17758	47	0
94	17758	47.1	0
94	17758	47.2	0
94	17758	47.3	0
94	17758	47.4	0
94	17758	47.5	0
94	17758	47.6	0
94	17758	47.7	0
94	17758	47.8	0
94	17758	47.9	0
94	17758	48	0
94	17758	48.1	0
94	17758	48.2	0
94	17758	48.3	0
94	17758	48.4	0
94	17758	48.5	0
94	17758	48.6	0
94	17758	48.7	0
94	17758	48.8	0
94	17758	48.9	0
94	17758	49	0
94	17758	49.1	0
94	17758	49.2	0
94	17758	49.3	0
94	17758	49.4	0
94	17758	49.5	0
94	17758	49.6	0
94	17758	49.7	0
94	17758	49.8	0
94	17758	49.9	0
94	17758	50	0
94	17758	50.1	0
94	17758	50.2	0
94	17758	50.3	0
94	17758	50.4	0
94	17758	50.5	0
94	17758	50.6	0
94	17758	50.7	0
94	17758	50.8	0
94	17758	50.9	0
94	17758	51	0
94	17758	51.1	0
94	17758	51.2	0
94	17758	51.3	0
94	17758	51.4	0
94	17758	51.5	0
94	17758	51.6	0
94	17758	51.7	0
94	17758	51.8	0
94	17758	51.9	0
94	17758	52	0
94	17758	52.1	0
94	17758	52.2	0
94	17758	52.3	0
94	17758	52.4	0
94	17758	52.5	0
94	17758	52.6	0
94	17758	52.7	0
94	17758	52.8	0
94	17758	52.9	0
94	17758	53	0
94	17758	53.1	0
94	17758	53.2	0
94	17758	53.3	0
94	17758	53.4	0
94	17758	53.5	0
94	17758	53.6	0
94	17758	53.7	0
94	17758	53.8	0
94	17758	53.9	0
94	17758	54	0
94	17758	54.1	0
94	17758	54.2	0
94	17758	54.3	0
94	17758	54.4	0
94	17758	54.5	0
94	17758	54.6	0
94	17758	54.7	0
94	17758	54.8	0
94	17758	54.9	0
94	17758	55	0
94	17758	55.1	0
94	17758	55.2	0
94	17758	55.3	0
94	17758	55.4	0
94	17758	55.5	0
94	17758	55.6	0
94	17758	55.7	0
94	17758	55.8	0
94	17758	55.9	0
94	17758	56	0
94	17758	56.1	0
94	17758	56.2	0
94	17758	56.3	0
94	17758	56.4	0
94	17758	56.5	0
94	17758	56.6	0
94	17758	56.7	0
94	17758	56.8	0
94	17758	56.9	0
94	17758	57	0
94	17758	57.1	0
94	17758	57.2	0
94	17758	57.3	0
94	17758	57.4	0
94	17758	57.5	0
94	17758	57.6	0
94	17758	57.7	0
94	17758	57.8	0
94	17758	57.9	0
94	17758	58	0
94	17758	58.1	0
94	17758	58.2	0
94	17758	58.3	0
94	17758	58.4	0
94	17758	58.5	0
94	17758	58.6	0
94	17758	58.7	0
94	17758	58.8	0
94	17758	58.9	0
94	17758	59	0
94	17758	59.1	0
94	17758	59.2	0
94	17758	59.3	0
94	17758	59.4	0
94	17758	59.5	0
94	17758	59.6	0
94	17758	59.7	0
94	17758	59.8	0
94	17758	59.9	0
94	17758	60	0
94	17758	60.1	0
94	17758	60.2	0
94	17758	60.3	0
94	17758	60.4	0
94	17758	60.5	0
94	17758	60.6	0
94	17758	60.7	0
94	17758	60.8	0
94	17758	60.9	0
94	17758	61	0
94	17758	61.1	0
94	17758	61.2	0
94	17758	61.3	0
94	17758	61.4	0
94	17758	61.5	0
94	17758	61.6	0
94	17758	61.7	0
94	17758	61.8	0
94	17758	61.9	0
94	17758	62	0
94	17758	62.1	0
94	17758	62.2	0
94	17758	62.3	0
94	17758	62.4	0
94	17758	62.5	0
94	17758	62.6	0
94	17758	62.7	0
94	17758	62.8	0
94	17758	62.9	0
94	17758	63	0
94	17758	63.1	0
94	17758	63.2	0
94	17758	63.3	0
94	17758	63.4	0
94	17758	63.5	0
94	17758	63.6	0
94	17758	63.7	0
94	17758	63.8	0
94	17758	63.9	0
94	17758	64	0
94	17758	64.1	0
94	17758	64.2	0
94	17758	64.3	0
94	17758	64.4	0
94	17758	64.5	0
94	17758	64.6	0
94	17758	64.7	0
94	17758	64.8	0
94	17758	64.9	0
94	17758	65	0
94	17758	65.1	0
94	17758	65.2	0
94	17758	65.3	0
94	17758	65.4	0
94	17758	65.5	0
94	17758	65.6	0
94	17758	65.7	0
94	17758	65.8	0
94	17758	65.9	0
94	17758	66	0
94	17758	66.1	0
94	17758	66.2	0
94	17758	66.3	0
94	17758	66.4	0
94	17758	66.5	0
94	17758	66.6	0
94	17758	66.7	0
94	17758	66.8	0
94	17758	66.9	0
94	17758	67	0
94	17758	67.1	0
94	17758	67.2	0
94	17758	67.3	0
94	17758	67.4	0
94	17758	67.5	0
94	17758	67.6	0
94	17758	67.7	0
94	17758	67.8	0
94	17758	67.9	0
94	17758	68	0
94	17758	68.1	0
94	17758	68.2	0
94	17758	68.3	0
94	17758	68.4	0
94	17758	68.5	0
94	17758	68.6	0
94	17758	68.7	0
94	17758	68.8	0
94	17758	68.9	0
94	17758	69	0
94	17758	69.1	0
94	17758	69.2	0
94	17758	69.3	0
94	17758	69.4	0
94	17758	69.5	0
94	17758	69.6	0
94	17758	69.7	0
94	17758	69.8	0
94	17758	69.9	0
94	17758	70	0
94	17758	70.1	0
94	17758	70.2	0
94	17758	70.3	0
94	17758	70.4	0
94	17758	70.5	0
94	17758	70.6	0
94	17758	70.7	0
94	17758	70.8	0
94	17758	70.9	0
94	17758	71	0
94	17758	71.1	0
94	17758	71.2	0
94	17758	71.3	0
94	17758	71.4	0
94	17758	71.5	0
94	17758	71.6	0
94	17758	71.7	0
94	17758	71.8	0
94	17758	71.9	0
94	17758	72	0
94	17758	72.1	0
94	17758	72.2	0
94	17758	72.3	0
94	17758	72.4	0
94	17758	72.5	0
94	17758	72.6	0
94	17758	72.7	0
94	17758	72.8	0
94	17758	72.9	0
94	17758	73	0
94	17758	73.1	0
94	17758	73.2	0
94	17758	73.3	0
94	17758	73.4	0
94	17758	73.5	0
94	17758	73.6	0
94	17758	73.7	0
94	17758	73.8	0
94	17758	73.9	0
94	17758	74	0
94	17758	74.1	0
94	17758	74.2	0
94	17758	74.3	0
94	17758	74.4	0
94	17758	74.5	0
94	17758	74.6	0
94	17758	74.7	0
94	17758	74.8	0
94	17758	74.9	0
94	17758	75	0
94	17758	75.1	0
94	17758	75.2	0
94	17758	75.3	0
94	17758	75.4	0
94	17758	75.5	0
94	17758	75.6	0
94	17758	75.7	0
94	17758	75.8	0
94	17758	75.9	0
94	17758	76	0
94	17758	76.1	0
94	17758	76.2	0
94	17758	76.3	0
94	17758	76.4	0
94	17758	76.5	0
94	17758	76.6	0
94	17758	76.7	0
94	17758	76.8	0
94	17758	76.9	0
94	17758	77	0
94	17758	77.1	0
94	17758	77.2	0
94	17758	77.3	0
94	17758	77.4	0
94	17758	77.5	0
94	17758	77.6	0
94	17758	77.7	0
94	17758	77.8	0
94	17758	77.9	0
94	17758	78	0
94	17758	78.1	0
94	17758	78.2	0
94	17758	78.3	0
94	17758	78.4	0
94	17758	78.5	0
94	17758	78.6	0
94	17758	78.7	0
94	17758	78.8	0
94	17758	78.9	0
94	17758	79	0
94	17758	79.1	0
94	17758	79.2	0
94	17758	79.3	0
94	17758	79.4	0
94	17758	79.5	0
94	17758	79.6	0
94	17758	79.7	0
94	17758	79.8	0
94	17758	79.9	0
94	17758	80	0
94	17758	80.1	0
94	17758	80.2	0
94	17758	80.3	0
94	17758	80.4	0
94	17758	80.5	0
94	17758	80.6	0
94	17758	80.7	0
94	17758	80.8	0
94	17758	80.9	0
94	17758	81	0
94	17758	81.1	0
94	17758	81.2	0
94	17758	81.3	0
94	17758	81.4	0
94	17758	81.5	0
94	17758	81.6	0
94	17758	81.7	0
94	17758	81.8	0
94	17758	81.9	0
94	17758	82	0
94	17758	82.1	0
94	17758	82.2	0
94	17758	82.3	0
94	17758	82.4	0
94	17758	82.5	0
94	17758	82.6	0
94	17758	82.7	0
94	17758	82.8	0
94	17758	82.9	0
94	17758	83	0
94	17758	83.1	0
94	17758	83.2	0
94	17758	83.3	0
94	17758	83.4	0
94	17758	83.5	0
94	17758	83.6	0
94	17758	83.7	0
94	17758	83.8	0
94	17758	83.9	0
94	17758	84	0
94	17758	84.1	0
94	17758	84.2	0
94	17758	84.3	0
94	17758	84.4	0
94	17758	84.5	0
94	17758	84.6	0
94	17758	84.7	0
94	17758	84.8	0
94	17758	84.9	0
94	17758	85	0
94	17758	85.1	0
94	17758	85.2	0
94	17758	85.3	0
94	17758	85.4	0
94	17758	85.5	0
94	17758	85.6	0
94	17758	85.7	0
94	17758	85.8	0
94	17758	85.9	0
94	17758	86	0
94	17758	86.1	0
94	17758	86.2	0
94	17758	86.3	0
94	17758	86.4	0
94	17758	86.5	0
94	17758	86.6	0
94	17758	86.7	0
94	17758	86.8	0
94	17758	86.9	0
94	17758	87	0
94	17758	87.1	0
94	17758	87.2	0
94	17758	87.3	0
94	17758	87.4	0
94	17758	87.5	0
94	17758	87.6	0
94	17758	87.7	0
94	17758	87.8	0
94	17758	87.9	0
94	17758	88	0
94	17758	88.1	0
94	17758	88.2	0
94	17758	88.3	0
94	17758	88.4	0
94	17758	88.5	0
94	17758	88.6	0
94	17758	88.7	0
94	17758	88.8	0
94	17758	88.9	0
94	17758	89	0
94	17758	89.1	0
94	17758	89.2	0
94	17758	89.3	0
94	17758	89.4	0
94	17758	89.5	0
94	17758	89.6	0
94	17758	89.7	0
94	17758	89.8	0
94	17758	89.9	0
94	17758	90	0
94	17758	90.1	0
94	17758	90.2	0
94	17758	90.3	0
94	17758	90.4	0
94	17758	90.5	0
94	17758	90.6	0
94	17758	90.7	0
94	17758	90.8	0
94	17758	90.9	0
94	17758	91	0
94	17758	91.1	0
94	17758	91.2	0
94	17758	91.3	0
94	17758	91.4	0
94	17758	91.5	0
94	17758	91.6	0
94	17758	91.7	0
94	17758	91.8	0
94	17758	91.9	0
94	17758	92	0
94	17758	92.1	0
94	17758	92.2	0
94	17758	92.3	0
94	17758	92.4	0
94	17758	92.5	0
94	17758	92.6	0
94	17758	92.7	0
94	17758	92.8	0
94	17758	92.9	0
94	17758	93	0
94	17758	93.1	0
94	17758	93.2	0
94	17758	93.3	0
94	17758	93.4	0
94	17758	93.5	0
94	17758	93.6	0
94	17758	93.7	0
94	17758	93.8	0
94	17758	93.9	0
94	17758	94	0
94	17758	94.1	0
94	17758	94.2	0
94	17758	94.3	0
94	17758	94.4	0
94	17758	94.5	0
94	17758	94.6	0
94	17758	94.7	0
94	17758	94.8	0
94	17758	94.9	0
94	17758	95	0
94	17758	95.1	0
94	17758	95.2	0
94	17758	95.3	0
94	17758	95.4	0
94	17758	95.5	0
94	17758	95.6	0
94	17758	95.7	0
94	17758	95.8	0
94	17758	95.9	0
94	17758	96	0
94	17758	96.1	0
94	17758	96.2	0
94	17758	96.3	0
94	17758	96.4	0
94	17758	96.5	0
94	17758	96.6	0
94	17758	96.7	0
94	17758	96.8	0
94	17758	96.9	0
94	17758	97	0
94	17758	97.1	0
94	17758	97.2	0
94	17758	97.3	0
94	17758	97.4	0
94	17758	97.5	0
94	17758	97.6	0
94	17758	97.7	0
94	17758	97.8	0
94	17758	97.9	0
94	17758	98	0
94	17758	98.1	0
94	17758	98.2	0
94	17758	98.3	0
94	17758	98.4	0
94	17758	98.5	0
94	17758	98.6	0
94	17758	98.7	0
94	17758	98.8	0
94	17758	98.9	0
94	17758	99	0
94	17758	99.1	0
94	17758	99.2	0
94	17758	99.3	0
94	17758	99.4	0
94	17758	99.5	0
94	17758	99.6	0
94	17758	99.7	0
94	17758	99.8	0
94	17758	99.9	0
94	17758	100	0
94	17758	100.1	0
94	17758	100.2	0
94	17758	100.3	0
94	17758	100.4	0
94	17758	100.5	0
94	17758	100.6	0
94	17758	100.7	0
94	17758	100.8	0
94	17758	100.9	0
94	17758	101	0
94	17758	101.1	0
94	17758	101.2	0
94	17758	101.3	0
94	17758	101.4	0
94	17758	101.5	0
94	17758	101.6	0
94	17758	101.7	0
94	17758	101.8	0
94	17758	101.9	0
94	17758	102	0
94	17758	102.1	0
94	17758	102.2	0
94	17758	102.3	0
94	17758	102.4	0
94	17758	102.5	0
94	17758	102.6	0
94	17758	102.7	0
94	17758	102.8	0
94	17758	102.9	0
94	17758	103	0
94	17758	103.1	0
94	17758	103.2	0
94	17758	103.3	0
94	17758	103.4	0
94	17758	103.5	0
94	17758	103.6	0
94	17758	103.7	0
94	17758	103.8	0
94	17758	103.9	0
94	17758	104	0
94	17758	104.1	0
94	17758	104.2	0
94	17758	104.3	0
94	17758	104.4	0
94	17758	104.5	0
94	17758	104.6	0
94	17758	104.7	0
94	17758	104.8	0
94	17758	104.9	0
94	17758	105	0
94	17758	105.1	0
94	17758	105.2	0
94	17758	105.3	0
94	17758	105.4	0
94	17758	105.5	0
94	17758	105.6	0
94	17758	105.7	0
94	17758	105.8	0
94	17758	105.9	0
94	17758	106	0
94	17758	106.1	0
94	17758	106.2	0
94	17758	106.3	0
94	17758	106.4	0
94	17758	106.5	0
94	17758	106.6	0
94	17758	106.7	0
94	17758	106.8	0
94	17758	106.9	0
94	17758	107	0
94	17758	107.1	0
94	17758	107.2	0
94	17758	107.3	0
94	17758	107.4	0
94	17758	107.5	0
94	17758	107.6	0
94	17758	107.7	0
94	17758	107.8	0
94	17758	107.9	0
94	17758	108	0
94	17758	108.1	0
94	17758	108.2	0
94	17758	108.3	0
94	17758	108.4	0
94	17758	108.5	0
94	17758	108.6	0
94	17758	108.7	0
94	17758	108.8	0
94	17758	108.9	0
94	17758	109	0
94	17758	109.1	0
94	17758	109.2	0
94	17758	109.3	0
94	17758	109.4	0
94	17758	109.5	0
94	17758	109.6	0
94	17758	109.7	0
94	17758	109.8	0
94	17758	109.9	0
94	17758	110	0
94	17758	110.1	0
94	17758	110.2	0
94	17758	110.3	0
94	17758	110.4	0
94	17758	110.5	0
94	17758	110.6	0
94	17758	110.7	0
94	17758	110.8	0
94	17758	110.9	0
94	17758	111	0
94	17758	111.1	0
94	17758	111.2	0
94	17758	111.3	0
94	17758	111.4	0
94	17758	111.5	0
94	17758	111.6	0
94	17758	111.7	0
94	17758	111.8	0
94	17758	111.9	0
94	17758	112	0
94	17758	112.1	0
94	17758	112.2	0
94	17758	112.3	0
94	17758	112.4	0
94	17758	112.5	0
94	17758	112.6	0
94	17758	112.7	0
94	17758	112.8	0
94	17758	112.9	0
94	17758	113	0
94	17758	113.1	0
94	17758	113.2	0
94	17758	113.3	0
94	17758	113.4	0
94	17758	113.5	0
94	17758	113.6	0
94	17758	113.7	0
94	17758	113.8	0
94	17758	113.9	0
94	17758	114	0
94	17758	114.1	0
94	17758	114.2	0
94	17758	114.3	0
94	17758	114.4	0
94	17758	114.5	0
94	17758	114.6	0
94	17758	114.7	0
94	17758	114.8	0
94	17758	114.9	0
94	17758	115	0
94	17758	115.1	0
94	17758	115.2	0
94	17758	115.3	0
94	17758	115.4	0
94	17758	115.5	0
94	17758	115.6	0
94	17758	115.7	0
94	17758	115.8	0
94	17758	115.9	0
94	17758	116	0
94	17758	116.1	0
94	17758	116.2	0
94	17758	116.3	0
94	17758	116.4	0
94	17758	116.5	0
94	17758	116.6	0
94	17758	116.7	0
94	17758	116.8	0
94	17758	116.9	0
94	17758	117	0
94	17758	117.1	0
94	17758	117.2	0
94	17758	117.3	0
94	17758	117.4	0
94	17758	117.5	0
94	17758	117.6	0
94	17758	117.7	0
94	17758	117.8	0
94	17758	117.9	0
94	17758	118	0
94	17758	118.1	0
94	17758	118.2	0
94	17758	118.3	0
94	17758	118.4	0
94	17758	118.5	0
94	17758	118.6	0
94	17758	118.7	0
94	17758	118.8	0
94	17758	118.9	0
94	17758	119	0
94	17758	119.1	0
94	17758	119.2	0
94	17758	119.3	0
94	17758	119.4	0
94	17758	119.5	0
94	17758	119.6	0
94	17758	119.7	0
94	17758	119.8	0
94	17758	119.9	0
94	17758	120	0
94	17758	120.1	0
94	17758	120.2	0
94	17758	120.3	0
94	17758	120.4	0
94	17758	120.5	0
94	17758	120.6	0
94	17758	120.7	0
94	17758	120.8	0
94	17758	120.9	0
94	17758	121	0
94	17758	121.1	0
94	17758	121.2	0
94	17758	121.3	0
94	17758	121.4	0
94	17758	121.5	0
94	17758	121.6	0
94	17758	121.7	0
94	17758	121.8	0
94	17758	121.9	0
94	17758	122	0
94	17758	122.1	0
94	17758	122.2	0
94	17758	122.3	0
94	17758	122.4	0
94	17758	122.5	0
94	17758	122.6	0
94	17758	122.7	0
94	17758	122.8	0
94	17758	122.9	0
94	17758	123	0
94	17758	123.1	0
94	17758	123.2	0
94	17758	123.3	0
94	17758	123.4	0
94	17758	123.5	0
94	17758	123.6	0
94	17758	123.7	0
94	17758	123.8	0
94	17758	123.9	0
94	17758	124	0
94	17758	124.1	0
94	17758	124.2	0
94	17758	124.3	0
94	17758	124.4	0
94	17758	124.5	0
94	17758	124.6	0
94	17758	124.7	0
94	17758	124.8	0
94	17758	124.9	0
94	17758	125	0
94	17758	125.1	0
94	17758	125.2	0
94	17888	125.3	2160
94	18112	125.4	1440
94	18112	125.5	0
94	18112	125.6	0
94	18112	125.7	0
94	18112	125.8	0
94	18112	125.9	0
94	18112	126	0
94	18112	126.1	0
94	18112	126.2	0
95	17758	125.297543291133	2.046538543981
95	17821	125.298928114447	1.047923367295
95	17854	125.299624937687	0.048620190535
95	17888	125.300641760851	0.043782186412
95	17966	125.304733406436	0.006701703626
95	18112	126.252307162852	0.0013024157
96	17817	125.298928114447	73
96	17850	125.299624937687	73
96	17884	125.300641760851	73
96	17944	125.304424583669	73
96	18108	126.252307162852	73
97	17944	125.304424583669	73
98	17944	125.304424583669	73

