version 2
run Sim2drone3sensor-0-20210303-18:31:54-15420
attr configname Sim2drone3sensor
attr datetime 20210303-18:31:54
attr experiment Sim2drone3sensor
attr inifile mobilityDrones-omnetpp.ini
attr iterationvars ""
attr iterationvarsf ""
attr measurement ""
attr network mobilityDrones
attr processid 15420
attr repetition 0
attr replication #0
attr resultdir results
attr runnumber 0
attr seedset 0
param *.numUAVs 2
param *.drones[*].app[0].destAddresses "\"sensor1 sensor2 sensor3\""
param *.sensor*.app[0].destAddresses "\"drones[0] drones[1]\""
param *.sensor1.mobility.initialX 450m
param *.sensor1.mobility.initialY 450m
param *.sensor1.mobility.initialZ 0m
param *.sensor2.mobility.initialX 250m
param *.sensor2.mobility.initialY 550m
param *.sensor2.mobility.initialZ 0m
param *.sensor3.mobility.initialX 550m
param *.sensor3.mobility.initialY 250m
param *.sensor3.mobility.initialZ 0m
param *.visualizer.osgVisualizer.typename "\"IntegratedOsgVisualizer\""
param *.visualizer.osgVisualizer.sceneVisualizer.typename "\"SceneOsgEarthVisualizer\""
param *.visualizer.osgVisualizer.sceneVisualizer.mapFile "\"map.earth\""
param *.visualizer.osgVisualizer.sceneVisualizer.sceneImageSize 10000m
param *.visualizer.osgVisualizer.sceneVisualizer.axisLength 500m
param *.visualizer.osgVisualizer.sceneVisualizer.sceneMinX -200m
param *.visualizer.osgVisualizer.sceneVisualizer.sceneMinY -200m
param *.visualizer.osgVisualizer.sceneVisualizer.sceneMinZ 0m
param *.visualizer.osgVisualizer.sceneVisualizer.sceneMaxX 5000m
param *.visualizer.osgVisualizer.sceneVisualizer.sceneMaxY 5000m
param *.visualizer.osgVisualizer.sceneVisualizer.sceneMaxZ 5000m
param *.visualizer.osgVisualizer.networkNodeVisualizer.displayModuleName true
param *.visualizer.*.mobilityVisualizer.displayMobility true
param *.visualizer.*.mobilityVisualizer.displayPositions true
param *.visualizer.*.mobilityVisualizer.displayOrientations true
param *.visualizer.*.mobilityVisualizer.displayVelocities true
param *.visualizer.*.mobilityVisualizer.displayMovementTrails true
param *.visualizer.*.mobilityVisualizer.animationSpeed 10
param *.visualizer.mediumVisualizer.displaySignals true
param **.constraintAreaMinX 0m
param **.constraintAreaMinY 0m
param **.constraintAreaMinZ 0m
param **.constraintAreaMaxX 5000m
param **.constraintAreaMaxY 5000m
param **.constraintAreaMaxZ 5000m
param *.drones*.wlan[0].radio.displayCommunicationRange true
param *.coordinateSystem.sceneLongitude -43.22260deg
param *.coordinateSystem.sceneLatitude -22.97556deg
param *.coordinateSystem.sceneHeading 90deg
param *.drones[*].osgModel "\"3d/drone.ive.100.scale.0,0,90.rot\""
param *.drones[*].mobility.typename "\"GotoWaypointMobility\""
param *.drones[*].mobility.coordinateSystemModule "\"coordinateSystem\""
param **.mobility.initFromDisplayString false
param *.drones[0].mobility.initialX 30m
param *.drones[0].mobility.initialY 30m
param *.drones[0].mobility.initialZ 0m
param *.drones[*].mobility.speed uniform(10mps,20mps)
param *.drones[*].numApps 2
param *.drones[*].app[0].typename "\"UdpBasicAppMobileNode\""
param *.drones[*].app[0].destPort 1000
param *.drones[*].app[0].sendInterval 1s
param *.drones[*].app[0].startTime exponential(1s)
param *.drones[*].app[0].messageLength 1454Byte
param *.drones[*].app[0].packetName "\"UAV-DEFAULT-PAYLOAD\""
param *.drones[*].app[1].typename "\"UdpSinkMobileNode\""
param *.drones[*].app[1].localPort 1000
param *.sensor.mobility.typename "\"StationaryMobility\""
param *.sensor*.numApps 2
param *.sensor*.app[0].typename "\"UdpBasicAppMobileSensorNode\""
param *.sensor*.app[0].destPort 1000
param *.sensor*.app[0].sendInterval 0.1s
param *.sensor*.app[0].startTime 1s
param *.sensor*.app[0].messageLength 1454Byte
param *.sensor*.app[0].packetName "\"SENSOR-DEFAULT-PAYLOAD\""
param *.sensor*.app[1].typename "\"UdpSinkMobileSensorNode\""
param *.sensor*.app[1].localPort 1000

vector 0 mobilityDrones.drones[0].wlan[0].radio radioMode:vector ETV
attr interpolationmode sample-hold
attr source radioModeChanged
attr title "Radio mode, vector"
vector 1 mobilityDrones.drones[0].wlan[0].radio radioChannel:vector ETV
attr interpolationmode sample-hold
attr source radioChannelChanged
attr title "Radio channel, vector"
vector 2 mobilityDrones.drones[1].wlan[0].radio radioMode:vector ETV
attr interpolationmode sample-hold
attr source radioModeChanged
attr title "Radio mode, vector"
vector 3 mobilityDrones.drones[1].wlan[0].radio radioChannel:vector ETV
attr interpolationmode sample-hold
attr source radioChannelChanged
attr title "Radio channel, vector"
vector 4 mobilityDrones.sensor1.wlan[0].radio radioMode:vector ETV
attr interpolationmode sample-hold
attr source radioModeChanged
attr title "Radio mode, vector"
vector 5 mobilityDrones.sensor1.wlan[0].radio radioChannel:vector ETV
attr interpolationmode sample-hold
attr source radioChannelChanged
attr title "Radio channel, vector"
vector 6 mobilityDrones.sensor2.wlan[0].radio radioMode:vector ETV
attr interpolationmode sample-hold
attr source radioModeChanged
attr title "Radio mode, vector"
vector 7 mobilityDrones.sensor2.wlan[0].radio radioChannel:vector ETV
attr interpolationmode sample-hold
attr source radioChannelChanged
attr title "Radio channel, vector"
vector 8 mobilityDrones.sensor3.wlan[0].radio radioMode:vector ETV
attr interpolationmode sample-hold
attr source radioModeChanged
attr title "Radio mode, vector"
vector 9 mobilityDrones.sensor3.wlan[0].radio radioChannel:vector ETV
attr interpolationmode sample-hold
attr source radioChannelChanged
attr title "Radio channel, vector"
vector 10 mobilityDrones.drones[0].wlan[0].radio receptionState:vector ETV
attr interpolationmode sample-hold
attr source receptionStateChanged
attr title "Radio reception state, vector"
vector 11 mobilityDrones.drones[1].wlan[0].radio receptionState:vector ETV
attr interpolationmode sample-hold
attr source receptionStateChanged
attr title "Radio reception state, vector"
vector 12 mobilityDrones.sensor1.wlan[0].radio receptionState:vector ETV
attr interpolationmode sample-hold
attr source receptionStateChanged
attr title "Radio reception state, vector"
vector 13 mobilityDrones.sensor2.wlan[0].radio receptionState:vector ETV
attr interpolationmode sample-hold
attr source receptionStateChanged
attr title "Radio reception state, vector"
vector 14 mobilityDrones.sensor3.wlan[0].radio receptionState:vector ETV
attr interpolationmode sample-hold
attr source receptionStateChanged
attr title "Radio reception state, vector"
vector 15 mobilityDrones.drones[0].wlan[0].mac.dcf.recoveryProcedure contentionWindowChanged:vector ETV
attr interpolationmode sample-hold
attr title "contention window, vector"
vector 16 mobilityDrones.drones[1].wlan[0].mac.dcf.recoveryProcedure contentionWindowChanged:vector ETV
attr interpolationmode sample-hold
attr title "contention window, vector"
vector 17 mobilityDrones.sensor1.wlan[0].mac.dcf.recoveryProcedure contentionWindowChanged:vector ETV
attr interpolationmode sample-hold
attr title "contention window, vector"
vector 18 mobilityDrones.sensor2.wlan[0].mac.dcf.recoveryProcedure contentionWindowChanged:vector ETV
attr interpolationmode sample-hold
attr title "contention window, vector"
vector 19 mobilityDrones.sensor3.wlan[0].mac.dcf.recoveryProcedure contentionWindowChanged:vector ETV
attr interpolationmode sample-hold
attr title "contention window, vector"
vector 20 mobilityDrones.drones[0].app[0] packetSent:vector(packetBytes) ETV
attr interpolationmode none
attr source packetSent
attr title "packets sent, vector(packetBytes)"
vector 21 mobilityDrones.drones[0].udp packetSent:vector(packetBytes) ETV
attr interpolationmode none
attr source packetSent
attr title "packets sent, vector(packetBytes)"
vector 22 mobilityDrones.drones[0].ipv4.arp arpRequestSent:vector(packetBytes) ETV
attr source arpRequestSent
attr title "ARP request sent, vector(packetBytes)"
vector 23 mobilityDrones.drones[0].wlan[0].mac packetReceivedFromUpper:vector(packetBytes) ETV
attr interpolationmode none
attr title "packets received from upper layer, vector(packetBytes)"
vector 24 mobilityDrones.drones[0].wlan[0].mac.dcf.channelAccess.pendingQueue packetPushed:vector(packetBytes) ETV
attr interpolationmode none
attr title "packet pushed, vector(packetBytes)"
vector 25 mobilityDrones.drones[0].wlan[0].mac.dcf.channelAccess.pendingQueue queueLength:vector ETV
attr interpolationmode sample-hold
attr source "count(packetPushed) - count(packetPopped) - count(packetRemoved) - count(packetDropped)"
attr title "queue length, vector"
vector 26 mobilityDrones.drones[0].wlan[0].mac.dcf.channelAccess.contention backoffPeriodGenerated:vector ETV
attr interpolationmode none
attr title "backoff periods, vector"
vector 27 mobilityDrones.drones[0].wlan[0].mac.dcf.channelAccess.contention backoffActive:vector ETV
attr interpolationmode sample-hold
attr source count(backoffStarted)-count(backoffStopped)
attr title "backoff active, vector"
vector 28 mobilityDrones.drones[0].wlan[0].mac.dcf.channelAccess.pendingQueue packetPopped:vector(packetBytes) ETV
attr interpolationmode none
attr title "packet popped, vector(packetBytes)"
vector 29 mobilityDrones.drones[0].wlan[0].mac.dcf.channelAccess.pendingQueue queueingTime:vector ETV
attr interpolationmode none
attr source queueingTime(packetPopped)
attr title "queueing times, vector"
attr unit s
vector 30 mobilityDrones.drones[0].wlan[0].mac.dcf.channelAccess.inProgressFrames queueLength:vector ETV
attr interpolationmode sample-hold
attr source "count(packetEnqueued) - count(packetDequeued)"
attr title "queue length, vector"
vector 31 mobilityDrones.drones[0].wlan[0].mac.dcf datarateSelected:vector ETV
attr interpolationmode none
attr title "datarates selected, vector"
vector 32 mobilityDrones.drones[0].wlan[0].mac packetSentToLower:vector(packetBytes) ETV
attr interpolationmode none
attr title "packets sent to lower layer, vector(packetBytes)"
vector 33 mobilityDrones.drones[0].wlan[0].mac.dcf frameSequenceActive:vector ETV
attr interpolationmode sample-hold
attr source count(frameSequenceStarted)-count(frameSequenceFinished)
attr title "frame sequence active, vector"
vector 34 mobilityDrones.drones[0].wlan[0].radio transmissionState:vector ETV
attr interpolationmode sample-hold
attr source transmissionStateChanged
attr title "Radio transmission state, vector"
vector 35 mobilityDrones.drones[0].wlan[0].mac.dcf packetSentToPeer:vector(packetBytes) ETV
attr interpolationmode none
attr title "packets sent, vector(packetBytes)"
vector 36 mobilityDrones.drones[0].wlan[0].mac.dcf packetSentToPeerMulticast:vector(packetBytes) ETV
attr interpolationmode none
attr source ieee80211Multicast(packetSentToPeer)
attr title "packets sent: multicast, vector(packetBytes)"
vector 37 mobilityDrones.drones[0].wlan[0].mac.dcf packetSentToPeerBroadcast:vector(packetBytes) ETV
attr interpolationmode none
attr source ieee80211Broadcast(packetSentToPeer)
attr title "packets sent: broadcast , vector(packetBytes)"
vector 38 mobilityDrones.drones[0].wlan[0].mac.dcf packetSentToPeerWithoutRetry:vector(packetBytes) ETV
attr interpolationmode none
attr source ieee80211NotRetry(packetSentToPeer)
attr title "packets sent: without retry, vector(packetBytes)"
vector 39 mobilityDrones.drones[0].wlan[0].mac.dcf.channelAccess.inProgressFrames queueingTime:vector ETV
attr interpolationmode none
attr source queueingTime(packetDequeued)
attr title "queueing times, vector"
vector 40 mobilityDrones.drones[1].wlan[0].mac packetReceivedFromLower:vector(packetBytes) ETV
attr interpolationmode none
attr title "packets received from lower layer, vector(packetBytes)"
vector 41 mobilityDrones.drones[1].wlan[0].mac.dcf packetReceivedFromPeer:vector(packetBytes) ETV
attr interpolationmode none
attr title "packets received, vector(packetBytes)"
vector 42 mobilityDrones.drones[1].wlan[0].mac.dcf packetReceivedFromPeerMulticast:vector(packetBytes) ETV
attr interpolationmode none
attr source ieee80211Multicast(packetReceivedFromPeer)
attr title "packets received: multicast, vector(packetBytes)"
vector 43 mobilityDrones.drones[1].wlan[0].mac.dcf packetReceivedFromPeerBroadcast:vector(packetBytes) ETV
attr interpolationmode none
attr source ieee80211Broadcast(packetReceivedFromPeer)
attr title "packets received: broadcast, vector(packetBytes)"
vector 44 mobilityDrones.drones[1].wlan[0].mac.dcf packetReceivedFromPeerWithoutRetry:vector(packetBytes) ETV
attr interpolationmode none
attr source ieee80211NotRetry(packetReceivedFromPeer)
attr title "packets received: without retry, vector(packetBytes)"
vector 45 mobilityDrones.drones[1].wlan[0].mac packetSentToUpper:vector(packetBytes) ETV
attr interpolationmode none
attr title "packets sent to upper layer, vector(packetBytes)"
vector 46 mobilityDrones.drones[1].app[0] packetSent:vector(packetBytes) ETV
attr interpolationmode none
attr source packetSent
attr title "packets sent, vector(packetBytes)"
vector 47 mobilityDrones.drones[1].udp packetSent:vector(packetBytes) ETV
attr interpolationmode none
attr source packetSent
attr title "packets sent, vector(packetBytes)"
vector 48 mobilityDrones.drones[1].ipv4.arp arpRequestSent:vector(packetBytes) ETV
attr source arpRequestSent
attr title "ARP request sent, vector(packetBytes)"
vector 49 mobilityDrones.drones[1].wlan[0].mac packetReceivedFromUpper:vector(packetBytes) ETV
attr interpolationmode none
attr title "packets received from upper layer, vector(packetBytes)"
vector 50 mobilityDrones.drones[1].wlan[0].mac.dcf.channelAccess.pendingQueue packetPushed:vector(packetBytes) ETV
attr interpolationmode none
attr title "packet pushed, vector(packetBytes)"
vector 51 mobilityDrones.drones[1].wlan[0].mac.dcf.channelAccess.pendingQueue queueLength:vector ETV
attr interpolationmode sample-hold
attr source "count(packetPushed) - count(packetPopped) - count(packetRemoved) - count(packetDropped)"
attr title "queue length, vector"
vector 52 mobilityDrones.drones[1].wlan[0].mac.dcf.channelAccess.contention backoffPeriodGenerated:vector ETV
attr interpolationmode none
attr title "backoff periods, vector"
vector 53 mobilityDrones.drones[1].wlan[0].mac.dcf.channelAccess.contention backoffActive:vector ETV
attr interpolationmode sample-hold
attr source count(backoffStarted)-count(backoffStopped)
attr title "backoff active, vector"
vector 54 mobilityDrones.drones[1].wlan[0].mac.dcf.channelAccess.pendingQueue packetPopped:vector(packetBytes) ETV
attr interpolationmode none
attr title "packet popped, vector(packetBytes)"
vector 55 mobilityDrones.drones[1].wlan[0].mac.dcf.channelAccess.pendingQueue queueingTime:vector ETV
attr interpolationmode none
attr source queueingTime(packetPopped)
attr title "queueing times, vector"
attr unit s
vector 56 mobilityDrones.drones[1].wlan[0].mac.dcf.channelAccess.inProgressFrames queueLength:vector ETV
attr interpolationmode sample-hold
attr source "count(packetEnqueued) - count(packetDequeued)"
attr title "queue length, vector"
vector 57 mobilityDrones.drones[1].wlan[0].mac.dcf datarateSelected:vector ETV
attr interpolationmode none
attr title "datarates selected, vector"
vector 58 mobilityDrones.drones[1].wlan[0].mac packetSentToLower:vector(packetBytes) ETV
attr interpolationmode none
attr title "packets sent to lower layer, vector(packetBytes)"
vector 59 mobilityDrones.drones[1].wlan[0].mac.dcf frameSequenceActive:vector ETV
attr interpolationmode sample-hold
attr source count(frameSequenceStarted)-count(frameSequenceFinished)
attr title "frame sequence active, vector"
vector 60 mobilityDrones.drones[1].wlan[0].radio transmissionState:vector ETV
attr interpolationmode sample-hold
attr source transmissionStateChanged
attr title "Radio transmission state, vector"
vector 61 mobilityDrones.drones[1].wlan[0].mac.dcf packetSentToPeer:vector(packetBytes) ETV
attr interpolationmode none
attr title "packets sent, vector(packetBytes)"
vector 62 mobilityDrones.drones[1].wlan[0].mac.dcf packetSentToPeerMulticast:vector(packetBytes) ETV
attr interpolationmode none
attr source ieee80211Multicast(packetSentToPeer)
attr title "packets sent: multicast, vector(packetBytes)"
vector 63 mobilityDrones.drones[1].wlan[0].mac.dcf packetSentToPeerBroadcast:vector(packetBytes) ETV
attr interpolationmode none
attr source ieee80211Broadcast(packetSentToPeer)
attr title "packets sent: broadcast , vector(packetBytes)"
vector 64 mobilityDrones.drones[1].wlan[0].mac.dcf packetSentToPeerWithoutRetry:vector(packetBytes) ETV
attr interpolationmode none
attr source ieee80211NotRetry(packetSentToPeer)
attr title "packets sent: without retry, vector(packetBytes)"
vector 65 mobilityDrones.drones[1].wlan[0].mac.dcf.channelAccess.inProgressFrames queueingTime:vector ETV
attr interpolationmode none
attr source queueingTime(packetDequeued)
attr title "queueing times, vector"
vector 66 mobilityDrones.drones[0].wlan[0].mac packetReceivedFromLower:vector(packetBytes) ETV
attr interpolationmode none
attr title "packets received from lower layer, vector(packetBytes)"
vector 67 mobilityDrones.drones[0].wlan[0].mac.dcf packetReceivedFromPeer:vector(packetBytes) ETV
attr interpolationmode none
attr title "packets received, vector(packetBytes)"
vector 68 mobilityDrones.drones[0].wlan[0].mac.dcf packetReceivedFromPeerMulticast:vector(packetBytes) ETV
attr interpolationmode none
attr source ieee80211Multicast(packetReceivedFromPeer)
attr title "packets received: multicast, vector(packetBytes)"
vector 69 mobilityDrones.drones[0].wlan[0].mac.dcf packetReceivedFromPeerBroadcast:vector(packetBytes) ETV
attr interpolationmode none
attr source ieee80211Broadcast(packetReceivedFromPeer)
attr title "packets received: broadcast, vector(packetBytes)"
vector 70 mobilityDrones.drones[0].wlan[0].mac.dcf packetReceivedFromPeerWithoutRetry:vector(packetBytes) ETV
attr interpolationmode none
attr source ieee80211NotRetry(packetReceivedFromPeer)
attr title "packets received: without retry, vector(packetBytes)"
vector 71 mobilityDrones.drones[0].wlan[0].mac packetSentToUpper:vector(packetBytes) ETV
attr interpolationmode none
attr title "packets sent to upper layer, vector(packetBytes)"
vector 72 mobilityDrones.drones[0].ipv4.ip packetDropAddressResolutionFailed:vector(packetBytes) ETV
attr interpolationmode none
attr source packetDropReasonIsAddressResolutionFailed(packetDropped)
attr title "packet drop: address resolution failed, vector(packetBytes)"
vector 73 mobilityDrones.drones[1].ipv4.ip packetDropAddressResolutionFailed:vector(packetBytes) ETV
attr interpolationmode none
attr source packetDropReasonIsAddressResolutionFailed(packetDropped)
attr title "packet drop: address resolution failed, vector(packetBytes)"
vector 74 mobilityDrones.drones[1].wlan[0].mac packetDrop:vector(packetBytes) ETV
attr interpolationmode none
attr source packetDropped
attr title "packet drops, vector(packetBytes)"
vector 75 mobilityDrones.drones[1].wlan[0].mac packetDropIncorrectlyReceived:vector(packetBytes) ETV
attr interpolationmode none
attr source packetDropReasonIsIncorrectlyReceived(packetDropped)
attr title "packet drops: incorrectly received, vector(packetBytes)"
vector 76 mobilityDrones.sensor1.wlan[0].mac packetReceivedFromLower:vector(packetBytes) ETV
attr interpolationmode none
attr title "packets received from lower layer, vector(packetBytes)"
vector 77 mobilityDrones.sensor1.wlan[0].mac.dcf packetReceivedFromPeer:vector(packetBytes) ETV
attr interpolationmode none
attr title "packets received, vector(packetBytes)"
vector 78 mobilityDrones.sensor1.wlan[0].mac.dcf packetReceivedFromPeerMulticast:vector(packetBytes) ETV
attr interpolationmode none
attr source ieee80211Multicast(packetReceivedFromPeer)
attr title "packets received: multicast, vector(packetBytes)"
vector 79 mobilityDrones.sensor1.wlan[0].mac.dcf packetReceivedFromPeerBroadcast:vector(packetBytes) ETV
attr interpolationmode none
attr source ieee80211Broadcast(packetReceivedFromPeer)
attr title "packets received: broadcast, vector(packetBytes)"
vector 80 mobilityDrones.sensor1.wlan[0].mac.dcf packetReceivedFromPeerWithoutRetry:vector(packetBytes) ETV
attr interpolationmode none
attr source ieee80211NotRetry(packetReceivedFromPeer)
attr title "packets received: without retry, vector(packetBytes)"
vector 81 mobilityDrones.sensor1.wlan[0].mac packetSentToUpper:vector(packetBytes) ETV
attr interpolationmode none
attr title "packets sent to upper layer, vector(packetBytes)"
vector 82 mobilityDrones.sensor1.ipv4.arp arpReplySent:vector(packetBytes) ETV
attr source arpReplySent
attr title "ARP replies sent, vector(packetBytes)"
vector 83 mobilityDrones.sensor1.wlan[0].mac packetReceivedFromUpper:vector(packetBytes) ETV
attr interpolationmode none
attr title "packets received from upper layer, vector(packetBytes)"
vector 84 mobilityDrones.sensor1.wlan[0].mac.dcf.channelAccess.pendingQueue packetPushed:vector(packetBytes) ETV
attr interpolationmode none
attr title "packet pushed, vector(packetBytes)"
vector 85 mobilityDrones.sensor1.wlan[0].mac.dcf.channelAccess.pendingQueue queueLength:vector ETV
attr interpolationmode sample-hold
attr source "count(packetPushed) - count(packetPopped) - count(packetRemoved) - count(packetDropped)"
attr title "queue length, vector"
vector 86 mobilityDrones.sensor1.wlan[0].mac.dcf.channelAccess.contention backoffPeriodGenerated:vector ETV
attr interpolationmode none
attr title "backoff periods, vector"
vector 87 mobilityDrones.sensor1.wlan[0].mac.dcf.channelAccess.contention backoffActive:vector ETV
attr interpolationmode sample-hold
attr source count(backoffStarted)-count(backoffStopped)
attr title "backoff active, vector"
vector 88 mobilityDrones.sensor1.wlan[0].mac.dcf.channelAccess.pendingQueue packetPopped:vector(packetBytes) ETV
attr interpolationmode none
attr title "packet popped, vector(packetBytes)"
vector 89 mobilityDrones.sensor1.wlan[0].mac.dcf.channelAccess.pendingQueue queueingTime:vector ETV
attr interpolationmode none
attr source queueingTime(packetPopped)
attr title "queueing times, vector"
attr unit s
vector 90 mobilityDrones.sensor1.wlan[0].mac.dcf.channelAccess.inProgressFrames queueLength:vector ETV
attr interpolationmode sample-hold
attr source "count(packetEnqueued) - count(packetDequeued)"
attr title "queue length, vector"
vector 91 mobilityDrones.sensor1.wlan[0].mac.dcf datarateSelected:vector ETV
attr interpolationmode none
attr title "datarates selected, vector"
vector 92 mobilityDrones.sensor1.wlan[0].mac packetSentToLower:vector(packetBytes) ETV
attr interpolationmode none
attr title "packets sent to lower layer, vector(packetBytes)"
vector 93 mobilityDrones.sensor1.wlan[0].mac.dcf frameSequenceActive:vector ETV
attr interpolationmode sample-hold
attr source count(frameSequenceStarted)-count(frameSequenceFinished)
attr title "frame sequence active, vector"
vector 94 mobilityDrones.sensor1.wlan[0].radio transmissionState:vector ETV
attr interpolationmode sample-hold
attr source transmissionStateChanged
attr title "Radio transmission state, vector"
vector 95 mobilityDrones.sensor1.wlan[0].mac.dcf packetSentToPeer:vector(packetBytes) ETV
attr interpolationmode none
attr title "packets sent, vector(packetBytes)"
vector 96 mobilityDrones.sensor1.wlan[0].mac.dcf packetSentToPeerUnicast:vector(packetBytes) ETV
attr interpolationmode none
attr source ieee80211Unicast(packetSentToPeer)
attr title "packets sent: unicast, vector(packetBytes)"
vector 97 mobilityDrones.sensor1.wlan[0].mac.dcf packetSentToPeerWithoutRetry:vector(packetBytes) ETV
attr interpolationmode none
attr source ieee80211NotRetry(packetSentToPeer)
attr title "packets sent: without retry, vector(packetBytes)"
vector 98 mobilityDrones.sensor1.wlan[0].mac.rx nav:vector ETV
attr interpolationmode linear
attr source navChanged
attr title "network allocation vector, vector"
vector 99 mobilityDrones.drones[1].wlan[0].mac.dcf packetReceivedFromPeerUnicast:vector(packetBytes) ETV
attr interpolationmode none
attr source ieee80211Unicast(packetReceivedFromPeer)
attr title "packets received: unicast, vector(packetBytes)"
vector 100 mobilityDrones.drones[1].wlan[0].mac.dcf packetSentToPeerUnicast:vector(packetBytes) ETV
attr interpolationmode none
attr source ieee80211Unicast(packetSentToPeer)
attr title "packets sent: unicast, vector(packetBytes)"
vector 101 mobilityDrones.sensor1.wlan[0].mac.dcf packetReceivedFromPeerUnicast:vector(packetBytes) ETV
attr interpolationmode none
attr source ieee80211Unicast(packetReceivedFromPeer)
attr title "packets received: unicast, vector(packetBytes)"
vector 102 mobilityDrones.sensor1.wlan[0].mac.dcf.channelAccess.inProgressFrames queueingTime:vector ETV
attr interpolationmode none
attr source queueingTime(packetDequeued)
attr title "queueing times, vector"
vector 103 mobilityDrones.drones[1].wlan[0].mac.rx nav:vector ETV
attr interpolationmode linear
attr source navChanged
attr title "network allocation vector, vector"
vector 104 mobilityDrones.sensor1.udp packetReceived:vector(packetBytes) ETV
attr interpolationmode none
attr source packetReceived
attr title "packets received, vector(packetBytes)"
vector 105 mobilityDrones.sensor1.udp passedUpPk:vector(count) ETV
attr interpolationmode none
attr source packetSentToUpper
attr title "packets passed up, vector(count)"
vector 106 mobilityDrones.sensor1.app[1] packetReceived:vector(packetBytes) ETV
attr interpolationmode none
attr source packetReceived
attr title "packets received, vector(packetBytes)"
vector 107 mobilityDrones.sensor1.app[1] throughput:vector ETV
attr source throughput(packetReceived)
attr title "throughput, vector"
attr unit bps
vector 108 mobilityDrones.sensor1.app[1] endToEndDelay:vector ETV
attr interpolationmode none
attr source dataAge(packetReceived)
attr title "end-to-end delay, vector"
attr unit s
vector 109 mobilityDrones.sensor1.app[1] rcvdPkSeqNo:vector ETV
attr interpolationmode none
attr source appPkSeqNo(packetReceived)
attr title "received packet sequence number, vector"
vector 110 mobilityDrones.sensor1.app[0] packetSent:vector(packetBytes) ETV
attr interpolationmode none
attr source packetSent
attr title "packets sent, vector(packetBytes)"
vector 111 mobilityDrones.sensor1.udp packetSent:vector(packetBytes) ETV
attr interpolationmode none
attr source packetSent
attr title "packets sent, vector(packetBytes)"
vector 112 mobilityDrones.sensor1.ipv4.arp arpRequestSent:vector(packetBytes) ETV
attr source arpRequestSent
attr title "ARP request sent, vector(packetBytes)"
vector 113 mobilityDrones.sensor1.wlan[0].mac.dcf packetSentToPeerMulticast:vector(packetBytes) ETV
attr interpolationmode none
attr source ieee80211Multicast(packetSentToPeer)
attr title "packets sent: multicast, vector(packetBytes)"
vector 114 mobilityDrones.sensor1.wlan[0].mac.dcf packetSentToPeerBroadcast:vector(packetBytes) ETV
attr interpolationmode none
attr source ieee80211Broadcast(packetSentToPeer)
attr title "packets sent: broadcast , vector(packetBytes)"
vector 115 mobilityDrones.sensor1.ipv4.ip packetDropAddressResolutionFailed:vector(packetBytes) ETV
attr interpolationmode none
attr source packetDropReasonIsAddressResolutionFailed(packetDropped)
attr title "packet drop: address resolution failed, vector(packetBytes)"
vector 116 mobilityDrones.drones[1].wlan[0].mac.dcf packetSentToPeerWithRetry:vector(packetBytes) ETV
attr interpolationmode none
attr source ieee80211Retry(packetSentToPeer)
attr title "packets sent: with retry, vector(packetBytes)"
vector 117 mobilityDrones.drones[1].wlan[0].mac.dcf packetDrop:vector(packetBytes) ETV
attr interpolationmode none
attr source packetDropped
attr title "packet drops, vector(packetBytes)"
vector 118 mobilityDrones.drones[1].wlan[0].mac.dcf packetDropRetryLimitReached:vector(packetBytes) ETV
attr interpolationmode none
attr source packetDropReasonIsRetryLimitReached(packetDropped)
attr title "packet drops: retry limit reached, vector(packetBytes)"
vector 119 mobilityDrones.drones[1].wlan[0].mac packetDropRetryLimitReached:vector(packetBytes) ETV
attr interpolationmode none
attr source packetDropReasonIsRetryLimitReached(packetDropped)
attr title "packet drops: retry limit reached, vector(packetBytes)"
vector 120 mobilityDrones.drones[0].wlan[0].mac.rx nav:vector ETV
attr interpolationmode linear
attr source navChanged
attr title "network allocation vector, vector"
vector 121 mobilityDrones.drones[0].wlan[0].mac.dcf packetDrop:vector(packetBytes) ETV
attr interpolationmode none
attr source packetDropped
attr title "packet drops, vector(packetBytes)"
vector 122 mobilityDrones.drones[0].wlan[0].mac.dcf packetDropNotAddressedToUs:vector(packetBytes) ETV
attr interpolationmode none
attr source packetDropReasonIsNotAddressedToUs(packetDropped)
attr title "packet drops: not addressed to us, vector(packetBytes)"
vector 123 mobilityDrones.drones[0].wlan[0].mac packetDrop:vector(packetBytes) ETV
attr interpolationmode none
attr source packetDropped
attr title "packet drops, vector(packetBytes)"
vector 124 mobilityDrones.drones[0].wlan[0].mac packetDropNotAddressedToUs:vector(packetBytes) ETV
attr interpolationmode none
attr source packetDropReasonIsNotAddressedToUs(packetDropped)
attr title "packet drops: not addressed to us, vector(packetBytes)"
0	0	0	0
0	0	0	0
0	0	0	2
0	40	0.795874504566	3
0	47	0.795924504566	2
0	137	1.795874504566	3
0	144	1.795924504566	2
0	154	1.796454504566	3
0	161	1.796504504566	2
0	256	2.795874504566	3
0	263	2.795924504566	2
0	273	2.796114504566	3
0	280	2.796164504566	2
0	395	3.795874504566	3
0	402	3.795924504566	2
0	412	3.796234504566	3
0	419	3.796284504566	2
0	535	4.795874504566	3
0	542	4.795924504566	2
0	552	4.796074504566	3
0	559	4.796124504566	2
0	675	5.795874504566	3
0	682	5.795924504566	2
0	692	5.796034504566	3
0	699	5.796084504566	2
0	795	6.795874504566	3
0	802	6.795924504566	2
0	812	6.796354504566	3
0	819	6.796404504566	2
0	914	7.795874504566	3
0	921	7.795924504566	2
0	931	7.796154504566	3
0	938	7.796204504566	2
0	1055	8.795874504566	3
0	1062	8.795924504566	2
0	1072	8.796434504566	3
0	1079	8.796484504566	2
0	1089	8.796594504566	3
0	1096	8.796644504566	2
0	1214	9.795874504566	3
0	1221	9.795924504566	2
0	1231	9.795974504566	3
0	1238	9.796024504566	2
0	1354	10.795874504566	3
0	1361	10.795924504566	2
0	1371	10.796134504566	3
0	1378	10.796184504566	2
0	1474	11.795874504566	3
0	1481	11.795924504566	2
0	1491	11.796174504566	3
0	1498	11.796224504566	2
0	1613	12.795874504566	3
0	1620	12.795924504566	2
0	1630	12.796114504566	3
0	1637	12.796164504566	2
0	1753	13.795874504566	3
0	1760	13.795924504566	2
0	1770	13.796194504566	3
0	1777	13.796244504566	2
0	1893	14.795874504566	3
0	1900	14.795924504566	2
0	1910	14.796034504566	3
0	1917	14.796084504566	2
0	2015	15.795874504566	3
0	2022	15.795924504566	2
0	2032	15.796374504566	3
0	2039	15.796424504566	2
0	2049	15.796694504566	3
0	2056	15.796744504566	2
0	2153	16.795874504566	3
0	2160	16.795924504566	2
0	2170	16.796594504566	3
0	2177	16.796644504566	2
0	2273	17.795874504566	3
0	2280	17.795924504566	2
0	2290	17.796374504566	3
0	2297	17.796424504566	2
0	2412	18.795874504566	3
0	2419	18.795924504566	2
0	2429	18.796034504566	3
0	2436	18.796084504566	2
0	2552	19.795874504566	3
0	2559	19.795924504566	2
0	2569	19.796314504566	3
0	2576	19.796364504566	2
0	2710	20.795874504566	3
0	2717	20.795924504566	2
0	2830	21.795874504566	3
0	2837	21.795924504566	2
0	2949	22.795874504566	3
0	2956	22.795924504566	2
0	3070	23.795874504566	3
0	3077	23.795924504566	2
0	3087	23.796014504566	3
0	3094	23.796064504566	2
0	3208	24.795874504566	3
0	3215	24.795924504566	2
0	3327	25.795874504566	3
0	3334	25.795924504566	2
0	3446	26.795874504566	3
0	3453	26.795924504566	2
0	3567	27.795874504566	3
0	3574	27.795924504566	2
0	3584	27.796414504566	3
0	3591	27.796464504566	2
0	3707	28.795874504566	3
0	3714	28.795924504566	2
0	3724	28.796354504566	3
0	3731	28.796404504566	2
0	3825	29.795874504566	3
0	3832	29.795924504566	2
0	3943	30.795874504566	3
0	3950	30.795924504566	2
0	4062	31.795874504566	3
0	4069	31.795924504566	2
0	4174	32.795874504566	3
0	4181	32.795924504566	2
0	4284	33.795874504566	3
0	4291	33.795924504566	2
0	4383	34.795874504566	3
0	4390	34.795924504566	2
0	4397	34.796534504566	3
0	4404	34.796584504566	2
0	4493	35.795874504566	3
0	4500	35.795924504566	2
0	4507	35.796354504566	3
0	4514	35.796404504566	2
0	4603	36.795874504566	3
0	4610	36.795924504566	2
0	4617	36.796514504566	3
0	4624	36.796564504566	2
0	4713	37.795874504566	3
0	4720	37.795924504566	2
0	4727	37.796234504566	3
0	4734	37.796284504566	2
0	4840	38.795874504566	3
0	4847	38.795924504566	2
0	4854	38.796134504566	3
0	4861	38.796184504566	2
0	4968	39.795874504566	3
0	4975	39.795924504566	2
0	4982	39.796554504566	3
0	4989	39.796604504566	2
0	5113	40.795874504566	3
0	5120	40.795924504566	2
0	5127	40.796554504566	3
0	5134	40.796604504566	2
0	5395	41.795874504566	3
0	5402	41.795924504566	2
0	5409	41.796414504566	3
0	5416	41.796464504566	2
0	5530	42.795874504566	3
0	5537	42.795924504566	2
0	5544	42.796354504566	3
0	5551	42.796404504566	2
0	5664	43.795874504566	3
0	5671	43.795924504566	2
0	5678	43.796554504566	3
0	5685	43.796604504566	2
0	5780	44.795874504566	3
0	5787	44.795924504566	2
0	5794	44.796034504566	3
0	5801	44.796084504566	2
0	5808	44.796414504566	3
0	5815	44.796464504566	2
0	5932	45.795874504566	3
0	5939	45.795924504566	2
0	5946	45.796234504566	3
0	5953	45.796284504566	2
0	5960	45.796474504566	3
0	5967	45.796524504566	2
0	6082	46.795874504566	3
0	6089	46.795924504566	2
0	6096	46.795994504566	3
0	6103	46.796044504566	2
0	6214	47.795874504566	3
0	6221	47.795924504566	2
0	6330	48.795874504566	3
0	6337	48.795924504566	2
0	6446	49.795874504566	3
0	6453	49.795924504566	2
0	6798	50.795874504566	3
0	6805	50.795924504566	2
0	6812	50.796074504566	3
0	6819	50.796124504566	2
0	7147	51.795874504566	3
0	7154	51.795924504566	2
0	7241	52.795874504566	3
0	7248	52.795924504566	2
0	7255	52.796394504566	3
0	7262	52.796444504566	2
0	7351	53.795874504566	3
0	7358	53.795924504566	2
0	7365	53.796514504566	3
0	7372	53.796564504566	2
0	7461	54.795874504566	3
0	7468	54.795924504566	2
0	7475	54.796494504566	3
0	7482	54.796544504566	2
0	7794	55.795874504566	3
0	7801	55.795924504566	2
0	7808	55.796254504566	3
0	7815	55.796304504566	2
0	8124	56.795874504566	3
0	8131	56.795924504566	2
0	8217	57.795874504566	3
0	8224	57.795924504566	2
0	8231	57.796374504566	3
0	8238	57.796424504566	2
0	8325	58.795874504566	3
0	8332	58.795924504566	2
0	8419	59.795874504566	3
0	8426	59.795924504566	2
0	8433	59.796234504566	3
0	8440	59.796284504566	2
0	8527	60.795874504566	3
0	8534	60.795924504566	2
0	8620	61.795874504566	3
0	8627	61.795924504566	2
0	8729	62.795874504566	3
0	8736	62.795924504566	2
0	8839	63.795874504566	3
0	8846	63.795924504566	2
0	8951	64.795874504566	3
0	8958	64.795924504566	2
0	8965	64.796334504566	3
0	8972	64.796384504566	2
0	9062	65.795874504566	3
0	9069	65.795924504566	2
0	9076	65.796174504566	3
0	9083	65.796224504566	2
0	9174	66.795874504566	3
0	9181	66.795924504566	2
0	9188	66.796294504566	3
0	9195	66.796344504566	2
0	9202	66.796914504566	3
0	9209	66.796964504566	2
0	9542	67.795874504566	3
0	9549	67.795924504566	2
0	9556	67.796414504566	3
0	9563	67.796464504566	2
0	9570	67.796994504566	3
0	9577	67.797044504566	2
0	9668	68.795874504566	3
0	9675	68.795924504566	2
0	9682	68.796114504566	3
0	9689	68.796164504566	2
0	10001	69.795874504566	3
0	10008	69.795924504566	2
0	10015	69.796474504566	3
0	10022	69.796524504566	2
0	10333	70.795874504566	3
0	10340	70.795924504566	2
0	10347	70.796154504566	3
0	10354	70.796204504566	2
0	10444	71.795874504566	3
0	10451	71.795924504566	2
0	10458	71.796314504566	3
0	10465	71.796364504566	2
0	10472	71.796814504566	3
0	10479	71.796864504566	2
0	10589	72.795874504566	3
0	10596	72.795924504566	2
0	10603	72.795994504566	3
0	10610	72.796044504566	2
0	10617	72.796494504566	3
0	10624	72.796544504566	2
0	10973	73.795874504566	3
0	10980	73.795924504566	2
0	10987	73.796314504566	3
0	10994	73.796364504566	2
0	11101	74.795874504566	3
0	11108	74.795924504566	2
0	11115	74.796494504566	3
0	11122	74.796544504566	2
0	11227	75.795874504566	3
0	11234	75.795924504566	2
0	11580	76.795874504566	3
0	11587	76.795924504566	2
0	11594	76.795994504566	3
0	11601	76.796044504566	2
0	11691	77.795874504566	3
0	11698	77.795924504566	2
0	11705	77.796374504566	3
0	11712	77.796424504566	2
0	11801	78.795874504566	3
0	11808	78.795924504566	2
0	11818	78.796094504566	3
0	11825	78.796144504566	2
0	12188	79.795874504566	3
0	12195	79.795924504566	2
0	12205	79.796514504566	3
0	12212	79.796564504566	2
0	12307	80.795874504566	3
0	12314	80.795924504566	2
0	12324	80.796554504566	3
0	12331	80.796604504566	2
0	12428	81.795874504566	3
0	12435	81.795924504566	2
0	12445	81.796234504566	3
0	12452	81.796284504566	2
0	12462	81.796834504566	3
0	12469	81.796884504566	2
0	12834	82.795874504566	3
0	12841	82.795924504566	2
0	12851	82.796214504566	3
0	12858	82.796264504566	2
0	12971	83.795874504566	3
0	12978	83.795924504566	2
0	13338	84.795874504566	3
0	13345	84.795924504566	2
0	13436	85.795874504566	3
0	13443	85.795924504566	2
1	0	0	0
2	0	0	0
2	0	0	0
2	0	0	2
2	66	0.923223131471	3
2	73	0.923273131471	2
2	187	1.923223131471	3
2	194	1.923273131471	2
2	308	2.923223131471	3
2	315	2.923273131471	2
2	325	2.923663131471	3
2	332	2.923713131471	2
2	448	3.923223131471	3
2	455	3.923273131471	2
2	465	3.923723131471	3
2	472	3.923773131471	2
2	588	4.923223131471	3
2	595	4.923273131471	2
2	605	4.923623131471	3
2	612	4.923673131471	2
2	726	5.923223131471	3
2	733	5.923273131471	2
2	845	6.923223131471	3
2	852	6.923273131471	2
2	966	7.923223131471	3
2	973	7.923273131471	2
2	983	7.923323131471	3
2	990	7.923373131471	2
2	1126	8.923223131471	3
2	1133	8.923273131471	2
2	1143	8.923683131471	3
2	1150	8.923733131471	2
2	1267	9.923223131471	3
2	1274	9.923273131471	2
2	1284	9.923743131471	3
2	1291	9.923793131471	2
2	1405	10.923223131471	3
2	1412	10.923273131471	2
2	1526	11.923223131471	3
2	1533	11.923273131471	2
2	1543	11.923803131471	3
2	1550	11.923853131471	2
2	1666	12.923223131471	3
2	1673	12.923273131471	2
2	1683	12.923383131471	3
2	1690	12.923433131471	2
2	1806	13.923223131471	3
2	1813	13.923273131471	2
2	1823	13.923863131471	3
2	1830	13.923913131471	2
2	1944	14.923223131471	3
2	1951	14.923273131471	2
2	2083	15.923223131471	3
2	2090	15.923273131471	2
2	2203	16.923223131471	3
2	2210	16.923273131471	2
2	2325	17.923223131471	3
2	2332	17.923273131471	2
2	2342	17.923743131471	3
2	2349	17.923793131471	2
2	2465	18.923223131471	3
2	2472	18.923273131471	2
2	2482	18.923423131471	3
2	2489	18.923473131471	2
2	2607	19.923223131471	3
2	2614	19.923273131471	2
2	2624	19.923363131471	3
2	2631	19.923413131471	2
2	2641	19.923783131471	3
2	2648	19.923833131471	2
2	2746	20.923223131471	3
2	2753	20.923273131471	2
2	2763	20.923583131471	3
2	2770	20.923633131471	2
2	2865	21.923223131471	3
2	2872	21.923273131471	2
2	2882	21.923943131471	3
2	2889	21.923993131471	2
2	2984	22.923223131471	3
2	2991	22.923273131471	2
2	3001	22.923843131471	3
2	3008	22.923893131471	2
2	3123	23.923223131471	3
2	3130	23.923273131471	2
2	3140	23.923923131471	3
2	3147	23.923973131471	2
2	3243	24.923223131471	3
2	3250	24.923273131471	2
2	3260	24.923683131471	3
2	3267	24.923733131471	2
2	3362	25.923223131471	3
2	3369	25.923273131471	2
2	3379	25.923403131471	3
2	3386	25.923453131471	2
2	3481	26.923223131471	3
2	3488	26.923273131471	2
2	3498	26.923363131471	3
2	3505	26.923413131471	2
2	3620	27.923223131471	3
2	3627	27.923273131471	2
2	3637	27.923703131471	3
2	3644	27.923753131471	2
2	3758	28.923223131471	3
2	3765	28.923273131471	2
2	3859	29.923223131471	3
2	3866	29.923273131471	2
2	3876	29.923543131471	3
2	3883	29.923593131471	2
2	3978	30.923223131471	3
2	3985	30.923273131471	2
2	3995	30.923363131471	3
2	4002	30.923413131471	2
2	4095	31.923223131471	3
2	4102	31.923273131471	2
2	4109	31.923383131471	3
2	4116	31.923433131471	2
2	4206	32.923223131471	3
2	4213	32.923273131471	2
2	4220	32.923583131471	3
2	4227	32.923633131471	2
2	4316	33.923223131471	3
2	4323	33.923273131471	2
2	4428	34.923223131471	3
2	4435	34.923273131471	2
2	4538	35.923223131471	3
2	4545	35.923273131471	2
2	4648	36.923223131471	3
2	4655	36.923273131471	2
2	4760	37.923223131471	3
2	4767	37.923273131471	2
2	4774	37.923623131471	3
2	4781	37.923673131471	2
2	4888	38.923223131471	3
2	4895	38.923273131471	2
2	4902	38.923543131471	3
2	4909	38.923593131471	2
2	5018	39.923223131471	3
2	5025	39.923273131471	2
2	5032	39.923943131471	3
2	5039	39.923993131471	2
2	5046	39.924483131471	3
2	5053	39.924533131471	2
2	5164	40.923223131471	3
2	5171	40.923273131471	2
2	5181	40.923683131471	3
2	5188	40.923733131471	2
2	5198	40.923843131471	3
2	5205	40.923893131471	2
2	5235	40.92412387655	3
2	5243	40.92415787655	2
2	5251	40.92464787655	3
2	5258	40.92517787655	2
2	5279	40.925232621531	3
2	5286	40.925278621531	2
2	5441	41.923223131471	3
2	5448	41.923273131471	2
2	5575	42.923223131471	3
2	5582	42.923273131471	2
2	5709	43.923223131471	3
2	5716	43.923273131471	2
2	5842	44.923223131471	3
2	5849	44.923273131471	2
2	5859	44.923563131471	3
2	5866	44.923613131471	2
2	5994	45.923223131471	3
2	6001	45.923273131471	2
2	6011	45.923343131471	3
2	6018	45.923393131471	2
2	6129	46.923223131471	3
2	6136	46.923273131471	2
2	6146	46.923943131471	3
2	6153	46.923993131471	2
2	6246	47.923223131471	3
2	6253	47.923273131471	2
2	6263	47.923923131471	3
2	6270	47.923973131471	2
2	6362	48.923223131471	3
2	6369	48.923273131471	2
2	6379	48.923643131471	3
2	6386	48.923693131471	2
2	6480	49.923223131471	3
2	6487	49.923273131471	2
2	6494	49.923823131471	3
2	6501	49.923873131471	2
2	6508	49.923983131471	3
2	6515	49.924513131471	2
2	6524	49.925487131471	3
2	6531	49.926017131471	2
2	6541	49.928691131471	3
2	6548	49.929221131471	2
2	6557	49.930115131471	3
2	6564	49.930645131471	2
2	6573	49.933119131471	3
2	6581	49.933649131471	2
2	6596	49.949803131471	3
2	6603	49.950333131471	2
2	6612	49.951107131471	3
2	6619	49.951637131471	2
2	6628	49.952171131471	3
2	6636	49.952217131471	2
2	6645	49.952971131471	3
2	6652	49.953017131471	2
2	6661	49.953471131471	3
2	6668	49.953517131471	2
2	6677	49.953951131471	3
2	6684	49.953997131471	2
2	6693	49.958511131471	3
2	6700	49.958557131471	2
2	6715	49.965451131471	3
2	6722	49.965497131471	2
2	6733	49.975771131471	3
2	6740	49.975817131471	2
2	6845	50.923223131471	3
2	6852	50.923273131471	2
2	6861	50.941023131471	3
2	6868	50.941553131471	2
2	6879	50.957047131471	3
2	6886	50.957577131471	2
2	6895	50.964211131471	3
2	6902	50.964741131471	2
2	6913	50.977395131471	3
2	6920	50.977925131471	2
2	6929	50.979939131471	3
2	6936	50.980469131471	2
2	6945	50.987483131471	3
2	6953	50.988013131471	2
2	6963	50.996667131471	3
2	6970	50.997197131471	2
2	6979	50.997531131471	3
2	6986	50.997577131471	2
2	6995	50.997891131471	3
2	7002	50.997937131471	2
2	7012	50.998471131471	3
2	7019	50.998517131471	2
2	7031	51.001771131471	3
2	7038	51.001817131471	2
2	7047	51.004811131471	3
2	7054	51.004857131471	2
2	7069	51.019151131471	3
2	7076	51.019197131471	2
2	7087	51.038631131471	3
2	7094	51.038677131471	2
2	7176	51.923223131471	3
2	7183	51.923273131471	2
2	7285	52.923223131471	3
2	7292	52.923273131471	2
2	7395	53.923223131471	3
2	7402	53.923273131471	2
2	7505	54.923223131471	3
2	7512	54.923753131471	2
2	7523	54.935447131471	3
2	7530	54.935977131471	2
2	7539	54.936491131471	3
2	7546	54.937021131471	2
2	7555	54.939335131471	3
2	7562	54.939865131471	2
2	7571	54.943339131471	3
2	7578	54.943869131471	2
2	7592	54.956183131471	3
2	7599	54.956713131471	2
2	7609	54.967627131471	3
2	7616	54.968157131471	2
2	7625	54.968751131471	3
2	7632	54.968797131471	2
2	7641	54.970151131471	3
2	7648	54.970197131471	2
2	7657	54.971631131471	3
2	7664	54.971677131471	2
2	7673	54.972791131471	3
2	7680	54.972837131471	2
2	7689	54.975651131471	3
2	7696	54.975697131471	2
2	7711	54.994831131471	3
2	7718	54.994877131471	2
2	7731	55.012151131471	3
2	7738	55.012197131471	2
2	7837	55.923223131471	3
2	7844	55.923753131471	2
2	7855	55.935627131471	3
2	7862	55.936157131471	2
2	7871	55.945451131471	3
2	7878	55.945981131471	2
2	7888	55.947915131471	3
2	7895	55.948445131471	2
2	7904	55.948899131471	3
2	7911	55.949429131471	2
2	7921	55.955903131471	3
2	7929	55.956433131471	2
2	7941	55.968487131471	3
2	7948	55.969017131471	2
2	7957	55.971611131471	3
2	7964	55.971657131471	2
2	7975	55.989431131471	3
2	7982	55.989477131471	2
2	7995	56.008591131471	3
2	8002	56.008637131471	2
2	8012	56.025371131471	3
2	8019	56.025417131471	2
2	8030	56.039811131471	3
2	8037	56.039857131471	2
2	8048	56.054591131471	3
2	8055	56.054637131471	2
2	8065	56.073371131471	3
2	8072	56.073417131471	2
2	8152	56.923223131471	3
2	8159	56.923273131471	2
2	8261	57.923223131471	3
2	8268	57.923273131471	2
2	8354	58.923223131471	3
2	8361	58.923273131471	2
2	8463	59.923223131471	3
2	8470	59.923273131471	2
2	8556	60.923223131471	3
2	8563	60.923273131471	2
2	8651	61.923223131471	3
2	8658	61.923273131471	2
2	8666	61.939723131471	3
2	8673	61.939773131471	2
2	8761	62.923223131471	3
2	8768	62.923273131471	2
2	8775	62.930783131471	3
2	8782	62.930833131471	2
2	8871	63.923223131471	3
2	8878	63.923273131471	2
2	8886	63.939843131471	3
2	8893	63.939893131471	2
2	8996	64.923223131471	3
2	9003	64.923273131471	2
2	9106	65.923223131471	3
2	9113	65.923273131471	2
2	9235	66.923223131471	3
2	9242	66.923273131471	2
2	9250	66.934723131471	3
2	9257	66.935253131471	2
2	9268	66.954347131471	3
2	9275	66.954877131471	2
2	9284	66.957191131471	3
2	9291	66.957721131471	2
2	9300	66.961935131471	3
2	9307	66.962465131471	2
2	9318	66.968659131471	3
2	9325	66.969189131471	2
2	9337	66.985003131471	3
2	9344	66.985533131471	2
2	9357	67.003507131471	3
2	9364	67.004037131471	2
2	9373	67.004351131471	3
2	9380	67.004397131471	2
2	9389	67.005251131471	3
2	9396	67.005297131471	2
2	9405	67.006171131471	3
2	9412	67.006217131471	2
2	9421	67.009031131471	3
2	9428	67.009077131471	2
2	9437	67.009431131471	3
2	9444	67.009477131471	2
2	9459	67.029891131471	3
2	9466	67.029937131471	2
2	9476	67.048091131471	3
2	9483	67.048137131471	2
2	9601	67.923223131471	3
2	9608	67.923273131471	2
2	9712	68.923223131471	3
2	9719	68.923753131471	2
2	9729	68.943187131471	3
2	9736	68.943717131471	2
2	9747	68.955351131471	3
2	9754	68.955881131471	2
2	9763	68.964075131471	3
2	9770	68.964605131471	2
2	9780	68.965919131471	3
2	9787	68.966449131471	2
2	9799	68.984283131471	3
2	9806	68.984813131471	2
2	9816	68.999987131471	3
2	9826	69.000517131471	2
2	9835	69.001171131471	3
2	9842	69.001217131471	2
2	9851	69.001791131471	3
2	9858	69.001837131471	2
2	9867	69.002011131471	3
2	9874	69.002057131471	2
2	9883	69.004151131471	3
2	9890	69.004197131471	2
2	9903	69.014131131471	3
2	9910	69.014177131471	2
2	9920	69.020371131471	3
2	9927	69.020417131471	2
2	9937	69.027371131471	3
2	9944	69.027417131471	2
2	10044	69.923223131471	3
2	10051	69.923753131471	2
2	10060	69.931087131471	3
2	10067	69.931617131471	2
2	10078	69.945751131471	3
2	10085	69.946281131471	2
2	10095	69.954615131471	3
2	10102	69.955145131471	2
2	10112	69.963559131471	3
2	10119	69.964089131471	2
2	10128	69.964863131471	3
2	10136	69.965393131471	2
2	10148	69.984167131471	3
2	10155	69.984697131471	2
2	10164	69.992311131471	3
2	10171	69.992357131471	2
2	10185	70.008871131471	3
2	10192	70.008917131471	2
2	10202	70.021631131471	3
2	10209	70.021677131471	2
2	10219	70.040711131471	3
2	10226	70.040757131471	2
2	10237	70.057931131471	3
2	10244	70.057977131471	2
2	10254	70.068111131471	3
2	10261	70.068157131471	2
2	10270	70.068391131471	3
2	10277	70.068437131471	2
2	10376	70.923223131471	3
2	10383	70.923273131471	2
2	10505	71.923223131471	3
2	10512	71.923273131471	2
2	10519	71.928503131471	3
2	10526	71.928553131471	2
2	10653	72.923223131471	3
2	10660	72.923273131471	2
2	10668	72.942843131471	3
2	10675	72.942893131471	2
2	10682	72.945183131471	3
2	10689	72.945713131471	2
2	10701	72.964767131471	3
2	10708	72.965297131471	2
2	10719	72.978491131471	3
2	10726	72.979021131471	2
2	10735	72.983955131471	3
2	10742	72.984485131471	2
2	10752	72.991879131471	3
2	10759	72.992409131471	2
2	10773	73.012403131471	3
2	10780	73.012933131471	2
2	10790	73.030307131471	3
2	10797	73.030837131471	2
2	10806	73.031251131471	3
2	10813	73.031297131471	2
2	10822	73.032651131471	3
2	10829	73.032697131471	2
2	10838	73.033411131471	3
2	10845	73.033457131471	2
2	10854	73.036511131471	3
2	10861	73.036557131471	2
2	10874	73.045731131471	3
2	10881	73.045777131471	2
2	10891	73.051171131471	3
2	10898	73.051217131471	2
2	10909	73.060191131471	3
2	10916	73.060237131471	2
2	11020	73.923223131471	3
2	11027	73.923273131471	2
2	11034	73.927823131471	3
2	11041	73.927873131471	2
2	11148	74.923223131471	3
2	11155	74.923273131471	2
2	11162	74.925883131471	3
2	11169	74.925933131471	2
2	11261	75.923223131471	3
2	11268	75.923273131471	2
2	11276	75.940063131471	3
2	11283	75.940113131471	2
2	11290	75.942843131471	3
2	11297	75.943373131471	2
2	11306	75.943627131471	3
2	11313	75.944157131471	2
2	11322	75.948871131471	3
2	11329	75.949401131471	2
2	11343	75.967375131471	3
2	11350	75.967905131471	2
2	11361	75.981699131471	3
2	11368	75.982229131471	2
2	11377	75.991303131471	3
2	11384	75.991833131471	2
2	11397	76.000367131471	3
2	11404	76.000897131471	2
2	11413	76.001651131471	3
2	11420	76.001697131471	2
2	11430	76.001871131471	3
2	11437	76.001917131471	2
2	11446	76.002531131471	3
2	11453	76.002577131471	2
2	11462	76.007151131471	3
2	11469	76.007197131471	2
2	11481	76.012251131471	3
2	11488	76.012297131471	2
2	11499	76.019691131471	3
2	11506	76.019737131471	2
2	11517	76.038771131471	3
2	11524	76.038817131471	2
2	11625	76.923223131471	3
2	11632	76.923273131471	2
2	11735	77.923223131471	3
2	11742	77.923273131471	2
2	11853	78.923223131471	3
2	11860	78.923273131471	2
2	11870	78.930263131471	3
2	11877	78.930793131471	2
2	11890	78.950367131471	3
2	11897	78.950897131471	2
2	11910	78.961471131471	3
2	11917	78.962001131471	2
2	11930	78.982135131471	3
2	11937	78.982665131471	2
2	11948	78.990699131471	3
2	11955	78.991229131471	2
2	11971	79.002583131471	3
2	11978	79.003113131471	2
2	11989	79.010507131471	3
2	11996	79.011037131471	2
2	12007	79.011351131471	3
2	12014	79.011397131471	2
2	12025	79.011691131471	3
2	12032	79.011737131471	2
2	12044	79.013791131471	3
2	12051	79.013837131471	2
2	12062	79.015671131471	3
2	12069	79.015717131471	2
2	12083	79.022591131471	3
2	12090	79.022637131471	2
2	12104	79.037091131471	3
2	12111	79.037137131471	2
2	12122	79.039531131471	3
2	12129	79.039577131471	2
2	12238	79.923223131471	3
2	12245	79.923273131471	2
2	12357	80.923223131471	3
2	12364	80.923273131471	2
2	12498	81.923223131471	3
2	12505	81.923273131471	2
2	12516	81.937363131471	3
2	12523	81.937893131471	2
2	12535	81.948407131471	3
2	12542	81.948937131471	2
2	12555	81.959071131471	3
2	12562	81.959601131471	2
2	12574	81.969755131471	3
2	12581	81.970285131471	2
2	12593	81.974579131471	3
2	12600	81.975109131471	2
2	12612	81.983583131471	3
2	12619	81.984113131471	2
2	12631	81.991607131471	3
2	12638	81.992137131471	2
2	12649	81.992791131471	3
2	12656	81.992837131471	2
2	12667	81.993611131471	3
2	12674	81.993657131471	2
2	12686	81.994451131471	3
2	12693	81.994497131471	2
2	12704	81.996051131471	3
2	12711	81.996097131471	2
2	12725	82.000551131471	3
2	12732	82.000597131471	2
2	12749	82.019711131471	3
2	12756	82.019757131471	2
2	12768	82.030611131471	3
2	12775	82.030657131471	2
2	12886	82.923223131471	3
2	12893	82.923273131471	2
2	12903	82.924343131471	3
2	12910	82.924393131471	2
2	13006	83.923223131471	3
2	13013	83.923273131471	2
2	13023	83.932203131471	3
2	13030	83.932733131471	2
2	13043	83.949227131471	3
2	13050	83.949757131471	2
2	13063	83.970311131471	3
2	13070	83.970841131471	2
2	13082	83.973115131471	3
2	13089	83.973645131471	2
2	13102	83.986639131471	3
2	13109	83.987169131471	2
2	13120	83.995243131471	3
2	13127	83.995773131471	2
2	13143	84.015387131471	3
2	13150	84.015917131471	2
2	13161	84.016371131471	3
2	13168	84.016417131471	2
2	13179	84.016651131471	3
2	13186	84.016697131471	2
2	13197	84.018671131471	3
2	13204	84.018717131471	2
2	13215	84.018931131471	3
2	13222	84.018977131471	2
2	13233	84.022531131471	3
2	13240	84.022577131471	2
2	13254	84.027571131471	3
2	13261	84.027617131471	2
2	13275	84.035991131471	3
2	13282	84.036037131471	2
2	13370	84.923223131471	3
2	13377	84.923273131471	2
2	13468	85.923223131471	3
2	13475	85.923753131471	2
2	13486	85.928327131471	3
2	13493	85.928857131471	2
2	13504	85.931051131471	3
2	13511	85.931581131471	2
2	13523	85.936195131471	3
2	13530	85.936725131471	2
2	13544	85.947079131471	3
2	13551	85.947609131471	2
2	13564	85.959903131471	3
2	13571	85.960433131471	2
2	13584	85.974087131471	3
2	13591	85.974617131471	2
2	13602	85.974811131471	3
2	13609	85.974857131471	2
2	13620	85.975271131471	3
3	0	0	0
4	0	0	0
4	0	0	0
4	0	0	2
4	5217	40.924063504016	3
4	5224	40.924113504016	2
4	5265	40.925188249054	3
4	5272	40.925222249054	2
4	5297	40.925288994006	3
4	5306	40.925322994006	2
4	5331	41	3
4	5338	41.00005	2
4	5466	42	3
4	5473	42.00005	2
4	5600	43	3
4	5607	43.00005	2
5	0	0	0
6	0	0	0
6	0	0	0
6	0	0	2
7	0	0	0
8	0	0	0
8	0	0	0
8	0	0	2
9	0	0	0
10	0	0	1
10	40	0.795874504566	0
10	47	0.795924504566	1
10	68	0.923223142381	3
10	74	0.923273142381	1
10	137	1.795874504566	0
10	144	1.795924504566	1
10	154	1.796454504566	0
10	161	1.796504504566	1
10	189	1.923223158238	3
10	195	1.923273158238	1
10	256	2.795874504566	0
10	263	2.795924504566	1
10	273	2.796114504566	0
10	280	2.796164504566	1
10	310	2.923223174259	3
10	316	2.923273174259	1
10	327	2.923663174266	3
10	333	2.923713174266	1
10	395	3.795874504566	0
10	402	3.795924504566	1
10	412	3.796234504566	0
10	419	3.796284504566	1
10	450	3.923223190311	3
10	456	3.923273190311	1
10	467	3.923723190319	3
10	473	3.923773190319	1
10	535	4.795874504566	0
10	542	4.795924504566	1
10	552	4.796074504566	0
10	559	4.796124504566	1
10	590	4.923223206373	3
10	596	4.923273206373	1
10	607	4.92362320638	3
10	613	4.92367320638	1
10	675	5.795874504566	0
10	682	5.795924504566	1
10	692	5.796034504566	0
10	699	5.796084504566	1
10	728	5.923223222441	3
10	734	5.923273222441	1
10	795	6.795874504566	0
10	802	6.795924504566	1
10	812	6.796354504566	0
10	819	6.796404504566	1
10	847	6.923223238511	3
10	853	6.923273238511	1
10	914	7.795874504566	0
10	921	7.795924504566	1
10	931	7.796154504566	0
10	938	7.796204504566	1
10	968	7.923223254583	3
10	974	7.923273254583	1
10	985	7.923323254585	3
10	991	7.923373254585	1
10	1055	8.795874504566	0
10	1062	8.795924504566	1
10	1072	8.796434504566	0
10	1079	8.796484504566	1
10	1089	8.796594504566	0
10	1096	8.796644504566	1
10	1128	8.923223270656	3
10	1134	8.923273270656	1
10	1145	8.923683270664	3
10	1151	8.923733270664	1
10	1214	9.795874504566	0
10	1221	9.795924504566	1
10	1231	9.795974504566	0
10	1238	9.796024504566	1
10	1269	9.92322328673	3
10	1275	9.92327328673	1
10	1286	9.923743286739	3
10	1292	9.923793286739	1
10	1354	10.795874504566	0
10	1361	10.795924504566	1
10	1371	10.796134504566	0
10	1378	10.796184504566	1
10	1407	10.923223302805	3
10	1413	10.923273302805	1
10	1474	11.795874504566	0
10	1481	11.795924504566	1
10	1491	11.796174504566	0
10	1498	11.796224504566	1
10	1528	11.92322331888	3
10	1534	11.92327331888	1
10	1545	11.923803318889	3
10	1551	11.923853318889	1
10	1613	12.795874504566	0
10	1620	12.795924504566	1
10	1630	12.796114504566	0
10	1637	12.796164504566	1
10	1668	12.923223334955	3
10	1674	12.923273334955	1
10	1685	12.923383334957	3
10	1691	12.923433334957	1
10	1753	13.795874504566	0
10	1760	13.795924504566	1
10	1770	13.796194504566	0
10	1777	13.796244504566	1
10	1808	13.92322335103	3
10	1814	13.92327335103	1
10	1825	13.92386335104	3
10	1831	13.92391335104	1
10	1893	14.795874504566	0
10	1900	14.795924504566	1
10	1910	14.796034504566	0
10	1917	14.796084504566	1
10	1946	14.923223367106	3
10	1952	14.923273367106	1
10	2015	15.795874504566	0
10	2022	15.795924504566	1
10	2032	15.796374504566	0
10	2039	15.796424504566	1
10	2049	15.796694504566	0
10	2056	15.796744504566	1
10	2085	15.923223383182	3
10	2091	15.923273383182	1
10	2153	16.795874504566	0
10	2160	16.795924504566	1
10	2170	16.796594504566	0
10	2177	16.796644504566	1
10	2205	16.923223399258	3
10	2211	16.923273399258	1
10	2273	17.795874504566	0
10	2280	17.795924504566	1
10	2290	17.796374504566	0
10	2297	17.796424504566	1
10	2327	17.923223399298	3
10	2333	17.923273399298	1
10	2344	17.923743399275	3
10	2350	17.923793399275	1
10	2412	18.795874504566	0
10	2419	18.795924504566	1
10	2429	18.796034504566	0
10	2436	18.796084504566	1
10	2467	18.923223355907	3
10	2473	18.923273355907	1
10	2484	18.923423355899	3
10	2490	18.923473355899	1
10	2552	19.795874504566	0
10	2559	19.795924504566	1
10	2569	19.796314504566	0
10	2576	19.796364504566	1
10	2609	19.923223314409	3
10	2615	19.923273314409	1
10	2626	19.923363314403	3
10	2632	19.923413314403	1
10	2643	19.923783314387	3
10	2649	19.923833314387	1
10	2710	20.795874504566	0
10	2717	20.795924504566	1
10	2748	20.923223276438	3
10	2754	20.923273276438	1
10	2765	20.923583276425	3
10	2771	20.923633276425	1
10	2830	21.795874504566	0
10	2837	21.795924504566	1
10	2867	21.92322324557	3
10	2873	21.92327324557	1
10	2884	21.923943245552	3
10	2890	21.923993245552	1
10	2949	22.795874504566	0
10	2956	22.795924504566	1
10	2986	22.923223228817	3
10	2992	22.923273228817	1
10	3003	22.923843228813	3
10	3009	22.923893228813	1
10	3070	23.795874504566	0
10	3077	23.795924504566	1
10	3087	23.796014504566	0
10	3094	23.796064504566	1
10	3125	23.923223233393	3
10	3131	23.923273233393	1
10	3142	23.923923233403	3
10	3148	23.923973233403	1
10	3208	24.795874504566	0
10	3215	24.795924504566	1
10	3245	24.923223256986	3
10	3251	24.923273256986	1
10	3262	24.923683257	3
10	3268	24.923733257	1
10	3327	25.795874504566	0
10	3334	25.795924504566	1
10	3364	25.923223291391	3
10	3370	25.923273291391	1
10	3381	25.923403291398	3
10	3387	25.923453291398	1
10	3446	26.795874504566	0
10	3453	26.795924504566	1
10	3483	26.923223331093	3
10	3489	26.923273331093	1
10	3500	26.923363331099	3
10	3506	26.923413331099	1
10	3567	27.795874504566	0
10	3574	27.795924504566	1
10	3584	27.796414504566	0
10	3591	27.796464504566	1
10	3622	27.9232233735	3
10	3628	27.9232733735	1
10	3639	27.92370337352	3
10	3645	27.92375337352	1
10	3707	28.795874504566	0
10	3714	28.795924504566	1
10	3724	28.796354504566	0
10	3731	28.796404504566	1
10	3760	28.92322341741	3
10	3766	28.92327341741	1
10	3825	29.795874504566	0
10	3832	29.795924504566	1
10	3861	29.923223462225	3
10	3867	29.923273462225	1
10	3878	29.92354346224	3
10	3884	29.92359346224	1
10	3943	30.795874504566	0
10	3950	30.795924504566	1
10	3980	30.923223507623	3
10	3986	30.923273507623	1
10	3997	30.923363507629	3
10	4003	30.923413507629	1
10	4062	31.795874504566	0
10	4069	31.795924504566	1
10	4097	31.923223553414	2
10	4103	31.923273553414	1
10	4111	31.923383553422	2
10	4117	31.923433553422	1
10	4174	32.795874504566	0
10	4181	32.795924504566	1
10	4208	32.923223551783	2
10	4214	32.923273551783	1
10	4222	32.92358355178	2
10	4228	32.92363355178	1
10	4284	33.795874504566	0
10	4291	33.795924504566	1
10	4318	33.923223549823	3
10	4324	33.923273549823	1
10	4383	34.795874504566	0
10	4390	34.795924504566	1
10	4397	34.796534504566	0
10	4404	34.796584504566	1
10	4493	35.795874504566	0
10	4500	35.795924504566	1
10	4507	35.796354504566	0
10	4514	35.796404504566	1
10	4603	36.795874504566	0
10	4610	36.795924504566	1
10	4617	36.796514504566	0
10	4624	36.796564504566	1
10	4713	37.795874504566	0
10	4720	37.795924504566	1
10	4727	37.796234504566	0
10	4734	37.796284504566	1
10	4840	38.795874504566	0
10	4847	38.795924504566	1
10	4854	38.796134504566	0
10	4861	38.796184504566	1
10	4968	39.795874504566	0
10	4975	39.795924504566	1
10	4982	39.796554504566	0
10	4989	39.796604504566	1
10	5113	40.795874504566	0
10	5120	40.795924504566	1
10	5127	40.796554504566	0
10	5134	40.796604504566	1
10	5395	41.795874504566	0
10	5402	41.795924504566	1
10	5409	41.796414504566	0
10	5416	41.796464504566	1
10	5530	42.795874504566	0
10	5537	42.795924504566	1
10	5544	42.796354504566	0
10	5551	42.796404504566	1
10	5664	43.795874504566	0
10	5671	43.795924504566	1
10	5678	43.796554504566	0
10	5685	43.796604504566	1
10	5780	44.795874504566	0
10	5787	44.795924504566	1
10	5794	44.796034504566	0
10	5801	44.796084504566	1
10	5808	44.796414504566	0
10	5815	44.796464504566	1
10	5932	45.795874504566	0
10	5939	45.795924504566	1
10	5946	45.796234504566	0
10	5953	45.796284504566	1
10	5960	45.796474504566	0
10	5967	45.796524504566	1
10	6082	46.795874504566	0
10	6089	46.795924504566	1
10	6096	46.795994504566	0
10	6103	46.796044504566	1
10	6214	47.795874504566	0
10	6221	47.795924504566	1
10	6330	48.795874504566	0
10	6337	48.795924504566	1
10	6446	49.795874504566	0
10	6453	49.795924504566	1
10	6798	50.795874504566	0
10	6805	50.795924504566	1
10	6812	50.796074504566	0
10	6819	50.796124504566	1
10	7147	51.795874504566	0
10	7154	51.795924504566	1
10	7241	52.795874504566	0
10	7248	52.795924504566	1
10	7255	52.796394504566	0
10	7262	52.796444504566	1
10	7351	53.795874504566	0
10	7358	53.795924504566	1
10	7365	53.796514504566	0
10	7372	53.796564504566	1
10	7461	54.795874504566	0
10	7468	54.795924504566	1
10	7475	54.796494504566	0
10	7482	54.796544504566	1
10	7794	55.795874504566	0
10	7801	55.795924504566	1
10	7808	55.796254504566	0
10	7815	55.796304504566	1
10	8124	56.795874504566	0
10	8131	56.795924504566	1
10	8217	57.795874504566	0
10	8224	57.795924504566	1
10	8231	57.796374504566	0
10	8238	57.796424504566	1
10	8325	58.795874504566	0
10	8332	58.795924504566	1
10	8419	59.795874504566	0
10	8426	59.795924504566	1
10	8433	59.796234504566	0
10	8440	59.796284504566	1
10	8527	60.795874504566	0
10	8534	60.795924504566	1
10	8620	61.795874504566	0
10	8627	61.795924504566	1
10	8729	62.795874504566	0
10	8736	62.795924504566	1
10	8839	63.795874504566	0
10	8846	63.795924504566	1
10	8951	64.795874504566	0
10	8958	64.795924504566	1
10	8965	64.796334504566	0
10	8972	64.796384504566	1
10	9062	65.795874504566	0
10	9069	65.795924504566	1
10	9076	65.796174504566	0
10	9083	65.796224504566	1
10	9174	66.795874504566	0
10	9181	66.795924504566	1
10	9188	66.796294504566	0
10	9195	66.796344504566	1
10	9202	66.796914504566	0
10	9209	66.796964504566	1
10	9542	67.795874504566	0
10	9549	67.795924504566	1
10	9556	67.796414504566	0
10	9563	67.796464504566	1
10	9570	67.796994504566	0
10	9577	67.797044504566	1
10	9668	68.795874504566	0
10	9675	68.795924504566	1
10	9682	68.796114504566	0
10	9689	68.796164504566	1
10	10001	69.795874504566	0
10	10008	69.795924504566	1
10	10015	69.796474504566	0
10	10022	69.796524504566	1
10	10333	70.795874504566	0
10	10340	70.795924504566	1
10	10347	70.796154504566	0
10	10354	70.796204504566	1
10	10444	71.795874504566	0
10	10451	71.795924504566	1
10	10458	71.796314504566	0
10	10465	71.796364504566	1
10	10472	71.796814504566	0
10	10479	71.796864504566	1
10	10589	72.795874504566	0
10	10596	72.795924504566	1
10	10603	72.795994504566	0
10	10610	72.796044504566	1
10	10617	72.796494504566	0
10	10624	72.796544504566	1
10	10973	73.795874504566	0
10	10980	73.795924504566	1
10	10987	73.796314504566	0
10	10994	73.796364504566	1
10	11101	74.795874504566	0
10	11108	74.795924504566	1
10	11115	74.796494504566	0
10	11122	74.796544504566	1
10	11227	75.795874504566	0
10	11234	75.795924504566	1
10	11580	76.795874504566	0
10	11587	76.795924504566	1
10	11594	76.795994504566	0
10	11601	76.796044504566	1
10	11691	77.795874504566	0
10	11698	77.795924504566	1
10	11705	77.796374504566	0
10	11712	77.796424504566	1
10	11737	77.923223558254	2
10	11743	77.923273558254	1
10	11801	78.795874504566	0
10	11808	78.795924504566	1
10	11818	78.796094504566	0
10	11825	78.796144504566	1
10	11855	78.923223471404	3
10	11861	78.923273471404	1
10	11872	78.930263470812	3
10	11878	78.930793470812	1
10	11892	78.950367469121	3
10	11898	78.950897469121	1
10	11912	78.961471468188	3
10	11918	78.962001468188	1
10	11932	78.982135466455	3
10	11938	78.982665466455	1
10	11950	78.990699465738	3
10	11956	78.991229465738	1
10	11973	79.002583464743	3
10	11979	79.003113464743	1
10	11991	79.01050746408	3
10	11997	79.01103746408	1
10	12009	79.01135146401	3
10	12015	79.01139746401	1
10	12027	79.011691463981	3
10	12033	79.011737463981	1
10	12046	79.013791463806	3
10	12052	79.013837463806	1
10	12064	79.015671463648	3
10	12070	79.015717463648	1
10	12085	79.02259146307	3
10	12091	79.02263746307	1
10	12106	79.03709146186	3
10	12112	79.03713746186	1
10	12124	79.039531461656	3
10	12130	79.039577461656	1
10	12188	79.795874504566	0
10	12195	79.795924504566	1
10	12205	79.796514504566	0
10	12212	79.796564504566	1
10	12240	79.923223391556	3
10	12246	79.923273391556	1
10	12307	80.795874504566	0
10	12314	80.795924504566	1
10	12324	80.796554504566	0
10	12331	80.796604504566	1
10	12359	80.923223327462	3
10	12365	80.923273327462	1
10	12428	81.795874504566	0
10	12435	81.795924504566	1
10	12445	81.796234504566	0
10	12452	81.796284504566	1
10	12462	81.796834504566	0
10	12469	81.796884504566	1
10	12500	81.923223298382	3
10	12506	81.923273298382	1
10	12518	81.937363298337	3
10	12524	81.937893298337	1
10	12537	81.948407298309	3
10	12543	81.948937298309	1
10	12557	81.959071298288	3
10	12563	81.959601298288	1
10	12576	81.969755298274	3
10	12582	81.970285298274	1
10	12595	81.974579298269	3
10	12601	81.975109298269	1
10	12614	81.983583298265	3
10	12620	81.984113298265	1
10	12633	81.991607298264	3
10	12639	81.992137298264	1
10	12651	81.992791298265	3
10	12657	81.992837298265	1
10	12669	81.993611298265	3
10	12675	81.993657298265	1
10	12688	81.994451298265	3
10	12694	81.994497298265	1
10	12706	81.996051298266	3
10	12712	81.996097298266	1
10	12727	82.000551298268	3
10	12733	82.000597298268	1
10	12751	82.019711298292	3
10	12757	82.019757298292	1
10	12770	82.030611298314	3
10	12776	82.030657298314	1
10	12834	82.795874504566	0
10	12841	82.795924504566	1
10	12851	82.796214504566	0
10	12858	82.796264504566	1
10	12888	82.923223321167	3
10	12894	82.923273321167	1
10	12905	82.924343321219	3
10	12911	82.924393321219	1
10	12971	83.795874504566	0
10	12978	83.795924504566	1
10	13008	83.923223382047	3
10	13014	83.923273382047	1
10	13025	83.932203382696	3
10	13031	83.932733382696	1
10	13045	83.949227383928	3
10	13051	83.949757383928	1
10	13065	83.970311385461	3
10	13071	83.970841385461	1
10	13084	83.973115385666	3
10	13090	83.973645385666	1
10	13104	83.986639386653	3
10	13110	83.987169386653	1
10	13122	83.995243387283	3
10	13128	83.995773387283	1
10	13145	84.015387388762	3
10	13151	84.015917388762	1
10	13163	84.016371388835	3
10	13169	84.016417388835	1
10	13181	84.016651388856	3
10	13187	84.016697388856	1
10	13199	84.018671389004	3
10	13205	84.018717389004	1
10	13217	84.018931389023	3
10	13223	84.018977389023	1
10	13235	84.022531389289	3
10	13241	84.022577389289	1
10	13256	84.02757138966	3
10	13262	84.02761738966	1
10	13277	84.035991390282	3
10	13283	84.036037390282	1
10	13338	84.795874504566	0
10	13345	84.795924504566	1
10	13372	84.923223460516	3
10	13378	84.923273460516	1
10	13436	85.795874504566	0
10	13443	85.795924504566	1
10	13470	85.923223488132	3
10	13476	85.923753488132	1
10	13488	85.928327488041	3
10	13494	85.928857488041	1
10	13506	85.931051487992	3
10	13512	85.931581487992	1
10	13525	85.9361954879	3
10	13531	85.9367254879	1
10	13546	85.947079487705	3
10	13552	85.947609487705	1
10	13566	85.959903487475	3
10	13572	85.960433487475	1
10	13586	85.974087487221	3
10	13592	85.974617487221	1
10	13604	85.974811487208	3
10	13610	85.974857487208	1
10	13622	85.9752714872	3
11	0	0	1
11	42	0.795874513513	3
11	48	0.795924513513	1
11	66	0.923223131471	0
11	73	0.923273131471	1
11	139	1.795874529297	3
11	145	1.795924529297	1
11	156	1.796454529307	3
11	162	1.796504529307	1
11	187	1.923223131471	0
11	194	1.923273131471	1
11	258	2.795874545311	3
11	264	2.795924545311	1
11	275	2.796114545315	3
11	281	2.796164545315	1
11	308	2.923223131471	0
11	315	2.923273131471	1
11	325	2.923663131471	0
11	332	2.923713131471	1
11	397	3.795874561361	3
11	403	3.795924561361	1
11	414	3.796234561367	3
11	420	3.796284561367	1
11	448	3.923223131471	0
11	455	3.923273131471	1
11	465	3.923723131471	0
11	472	3.923773131471	1
11	537	4.795874577422	3
11	543	4.795924577422	1
11	554	4.796074577426	3
11	560	4.796124577426	1
11	588	4.923223131471	0
11	595	4.923273131471	1
11	605	4.923623131471	0
11	612	4.923673131471	1
11	677	5.795874593489	3
11	683	5.795924593489	1
11	694	5.796034593492	3
11	700	5.796084593492	1
11	726	5.923223131471	0
11	733	5.923273131471	1
11	797	6.795874609559	3
11	803	6.795924609559	1
11	814	6.796354609567	3
11	820	6.796404609567	1
11	845	6.923223131471	0
11	852	6.923273131471	1
11	916	7.795874625631	3
11	922	7.795924625631	1
11	933	7.796154625636	3
11	939	7.796204625636	1
11	966	7.923223131471	0
11	973	7.923273131471	1
11	983	7.923323131471	0
11	990	7.923373131471	1
11	1057	8.795874641704	3
11	1063	8.795924641704	1
11	1074	8.796434641713	3
11	1080	8.796484641713	1
11	1091	8.796594641716	3
11	1097	8.796644641716	1
11	1126	8.923223131471	0
11	1133	8.923273131471	1
11	1143	8.923683131471	0
11	1150	8.923733131471	1
11	1216	9.795874657778	3
11	1222	9.795924657778	1
11	1233	9.79597465778	3
11	1239	9.79602465778	1
11	1267	9.923223131471	0
11	1274	9.923273131471	1
11	1284	9.923743131471	0
11	1291	9.923793131471	1
11	1356	10.795874673853	3
11	1362	10.795924673853	1
11	1373	10.796134673857	3
11	1379	10.796184673857	1
11	1405	10.923223131471	0
11	1412	10.923273131471	1
11	1476	11.795874689927	3
11	1482	11.795924689927	1
11	1493	11.796174689932	3
11	1499	11.796224689932	1
11	1526	11.923223131471	0
11	1533	11.923273131471	1
11	1543	11.923803131471	0
11	1550	11.923853131471	1
11	1615	12.795874706003	3
11	1621	12.795924706003	1
11	1632	12.796114706006	3
11	1638	12.796164706006	1
11	1666	12.923223131471	0
11	1673	12.923273131471	1
11	1683	12.923383131471	0
11	1690	12.923433131471	1
11	1755	13.795874722078	3
11	1761	13.795924722078	1
11	1772	13.796194722083	3
11	1778	13.796244722083	1
11	1806	13.923223131471	0
11	1813	13.923273131471	1
11	1823	13.923863131471	0
11	1830	13.923913131471	1
11	1895	14.795874738154	3
11	1901	14.795924738154	1
11	1912	14.796034738156	3
11	1918	14.796084738156	1
11	1944	14.923223131471	0
11	1951	14.923273131471	1
11	2017	15.795874754229	3
11	2023	15.795924754229	1
11	2034	15.796374754237	3
11	2040	15.796424754237	1
11	2051	15.796694754243	3
11	2057	15.796744754243	1
11	2083	15.923223131471	0
11	2090	15.923273131471	1
11	2155	16.795874770305	3
11	2161	16.795924770305	1
11	2172	16.796594770317	3
11	2178	16.796644770317	1
11	2203	16.923223131471	0
11	2210	16.923273131471	1
11	2275	17.795874778009	3
11	2281	17.795924778009	1
11	2292	17.796374777987	3
11	2298	17.796424777987	1
11	2325	17.923223131471	0
11	2332	17.923273131471	1
11	2342	17.923743131471	0
11	2349	17.923793131471	1
11	2414	18.795874734445	3
11	2420	18.795924734445	1
11	2431	18.796034734438	3
11	2437	18.796084734438	1
11	2465	18.923223131471	0
11	2472	18.923273131471	1
11	2482	18.923423131471	0
11	2489	18.923473131471	1
11	2554	19.79587469264	3
11	2560	19.79592469264	1
11	2571	19.796314692622	3
11	2577	19.796364692622	1
11	2607	19.923223131471	0
11	2614	19.923273131471	1
11	2624	19.923363131471	0
11	2631	19.923413131471	1
11	2641	19.923783131471	0
11	2648	19.923833131471	1
11	2712	20.795874654077	3
11	2718	20.795924654077	1
11	2746	20.923223131471	0
11	2753	20.923273131471	1
11	2763	20.923583131471	0
11	2770	20.923633131471	1
11	2832	21.795874621995	3
11	2838	21.795924621995	1
11	2865	21.923223131471	0
11	2872	21.923273131471	1
11	2882	21.923943131471	0
11	2889	21.923993131471	1
11	2951	22.795874602952	3
11	2957	22.795924602952	1
11	2984	22.923223131471	0
11	2991	22.923273131471	1
11	3001	22.923843131471	0
11	3008	22.923893131471	1
11	3072	23.795874604688	3
11	3078	23.795924604688	1
11	3089	23.79601460469	3
11	3095	23.79606460469	1
11	3123	23.923223131471	0
11	3130	23.923273131471	1
11	3140	23.923923131471	0
11	3147	23.923973131471	1
11	3210	24.795874626317	3
11	3216	24.795924626317	1
11	3243	24.923223131471	0
11	3250	24.923273131471	1
11	3260	24.923683131471	0
11	3267	24.923733131471	1
11	3329	25.795874659731	3
11	3335	25.795924659731	1
11	3362	25.923223131471	0
11	3369	25.923273131471	1
11	3379	25.923403131471	0
11	3386	25.923453131471	1
11	3448	26.795874698946	3
11	3454	26.795924698946	1
11	3481	26.923223131471	0
11	3488	26.923273131471	1
11	3498	26.923363131471	0
11	3505	26.923413131471	1
11	3569	27.795874741094	3
11	3575	27.795924741094	1
11	3586	27.796414741117	3
11	3592	27.796464741117	1
11	3620	27.923223131471	0
11	3627	27.923273131471	1
11	3637	27.923703131471	0
11	3644	27.923753131471	1
11	3709	28.795874784854	3
11	3715	28.795924784854	1
11	3726	28.796354784875	3
11	3732	28.796404784875	1
11	3758	28.923223131471	0
11	3765	28.923273131471	1
11	3827	29.795874829576	3
11	3833	29.795924829576	1
11	3859	29.923223131471	0
11	3866	29.923273131471	1
11	3876	29.923543131471	0
11	3883	29.923593131471	1
11	3945	30.795874874911	3
11	3951	30.795924874911	1
11	3978	30.923223131471	0
11	3985	30.923273131471	1
11	3995	30.923363131471	0
11	4002	30.923413131471	1
11	4064	31.79587492066	3
11	4070	31.79592492066	1
11	4095	31.923223131471	0
11	4102	31.923273131471	1
11	4109	31.923383131471	0
11	4116	31.923433131471	1
11	4176	32.795874926034	2
11	4182	32.795924926034	1
11	4206	32.923223131471	0
11	4213	32.923273131471	1
11	4220	32.923583131471	0
11	4227	32.923633131471	1
11	4286	33.795874921003	3
11	4292	33.795924921003	1
11	4316	33.923223131471	0
11	4323	33.923273131471	1
11	4428	34.923223131471	0
11	4435	34.923273131471	1
11	4538	35.923223131471	0
11	4545	35.923273131471	1
11	4648	36.923223131471	0
11	4655	36.923273131471	1
11	4760	37.923223131471	0
11	4767	37.923273131471	1
11	4774	37.923623131471	0
11	4781	37.923673131471	1
11	4888	38.923223131471	0
11	4895	38.923273131471	1
11	4902	38.923543131471	0
11	4909	38.923593131471	1
11	5018	39.923223131471	0
11	5025	39.923273131471	1
11	5032	39.923943131471	0
11	5039	39.923993131471	1
11	5046	39.924483131471	0
11	5053	39.924533131471	1
11	5164	40.923223131471	0
11	5171	40.923273131471	1
11	5181	40.923683131471	0
11	5188	40.923733131471	1
11	5198	40.923843131471	0
11	5205	40.923893131471	1
11	5219	40.92406387655	3
11	5225	40.92411387655	1
11	5235	40.92412387655	0
11	5243	40.92415787655	1
11	5251	40.92464787655	0
11	5258	40.92517787655	1
11	5267	40.925188621531	3
11	5273	40.925222621531	1
11	5279	40.925232621531	0
11	5286	40.925278621531	1
11	5299	40.925289366478	3
11	5307	40.925323366478	1
11	5333	41.000000368709	3
11	5339	41.000050368709	1
11	5441	41.923223131471	0
11	5448	41.923273131471	1
11	5468	42.000000319485	3
11	5474	42.000050319485	1
11	5575	42.923223131471	0
11	5582	42.923273131471	1
11	5602	43.000000273169	3
11	5608	43.000050273169	1
11	5709	43.923223131471	0
11	5716	43.923273131471	1
11	5842	44.923223131471	0
11	5849	44.923273131471	1
11	5859	44.923563131471	0
11	5866	44.923613131471	1
11	5994	45.923223131471	0
11	6001	45.923273131471	1
11	6011	45.923343131471	0
11	6018	45.923393131471	1
11	6129	46.923223131471	0
11	6136	46.923273131471	1
11	6146	46.923943131471	0
11	6153	46.923993131471	1
11	6246	47.923223131471	0
11	6253	47.923273131471	1
11	6263	47.923923131471	0
11	6270	47.923973131471	1
11	6362	48.923223131471	0
11	6369	48.923273131471	1
11	6379	48.923643131471	0
11	6386	48.923693131471	1
11	6480	49.923223131471	0
11	6487	49.923273131471	1
11	6494	49.923823131471	0
11	6501	49.923873131471	1
11	6508	49.923983131471	0
11	6515	49.924513131471	1
11	6524	49.925487131471	0
11	6531	49.926017131471	1
11	6541	49.928691131471	0
11	6548	49.929221131471	1
11	6557	49.930115131471	0
11	6564	49.930645131471	1
11	6573	49.933119131471	0
11	6581	49.933649131471	1
11	6596	49.949803131471	0
11	6603	49.950333131471	1
11	6612	49.951107131471	0
11	6619	49.951637131471	1
11	6628	49.952171131471	0
11	6636	49.952217131471	1
11	6645	49.952971131471	0
11	6652	49.953017131471	1
11	6661	49.953471131471	0
11	6668	49.953517131471	1
11	6677	49.953951131471	0
11	6684	49.953997131471	1
11	6693	49.958511131471	0
11	6700	49.958557131471	1
11	6715	49.965451131471	0
11	6722	49.965497131471	1
11	6733	49.975771131471	0
11	6740	49.975817131471	1
11	6845	50.923223131471	0
11	6852	50.923273131471	1
11	6861	50.941023131471	0
11	6868	50.941553131471	1
11	6879	50.957047131471	0
11	6886	50.957577131471	1
11	6895	50.964211131471	0
11	6902	50.964741131471	1
11	6913	50.977395131471	0
11	6920	50.977925131471	1
11	6929	50.979939131471	0
11	6936	50.980469131471	1
11	6945	50.987483131471	0
11	6953	50.988013131471	1
11	6963	50.996667131471	0
11	6970	50.997197131471	1
11	6979	50.997531131471	0
11	6986	50.997577131471	1
11	6995	50.997891131471	0
11	7002	50.997937131471	1
11	7012	50.998471131471	0
11	7019	50.998517131471	1
11	7031	51.001771131471	0
11	7038	51.001817131471	1
11	7047	51.004811131471	0
11	7054	51.004857131471	1
11	7069	51.019151131471	0
11	7076	51.019197131471	1
11	7087	51.038631131471	0
11	7094	51.038677131471	1
11	7176	51.923223131471	0
11	7183	51.923273131471	1
11	7285	52.923223131471	0
11	7292	52.923273131471	1
11	7395	53.923223131471	0
11	7402	53.923273131471	1
11	7505	54.923223131471	0
11	7512	54.923753131471	1
11	7523	54.935447131471	0
11	7530	54.935977131471	1
11	7539	54.936491131471	0
11	7546	54.937021131471	1
11	7555	54.939335131471	0
11	7562	54.939865131471	1
11	7571	54.943339131471	0
11	7578	54.943869131471	1
11	7592	54.956183131471	0
11	7599	54.956713131471	1
11	7609	54.967627131471	0
11	7616	54.968157131471	1
11	7625	54.968751131471	0
11	7632	54.968797131471	1
11	7641	54.970151131471	0
11	7648	54.970197131471	1
11	7657	54.971631131471	0
11	7664	54.971677131471	1
11	7673	54.972791131471	0
11	7680	54.972837131471	1
11	7689	54.975651131471	0
11	7696	54.975697131471	1
11	7711	54.994831131471	0
11	7718	54.994877131471	1
11	7731	55.012151131471	0
11	7738	55.012197131471	1
11	7837	55.923223131471	0
11	7844	55.923753131471	1
11	7855	55.935627131471	0
11	7862	55.936157131471	1
11	7871	55.945451131471	0
11	7878	55.945981131471	1
11	7888	55.947915131471	0
11	7895	55.948445131471	1
11	7904	55.948899131471	0
11	7911	55.949429131471	1
11	7921	55.955903131471	0
11	7929	55.956433131471	1
11	7941	55.968487131471	0
11	7948	55.969017131471	1
11	7957	55.971611131471	0
11	7964	55.971657131471	1
11	7975	55.989431131471	0
11	7982	55.989477131471	1
11	7995	56.008591131471	0
11	8002	56.008637131471	1
11	8012	56.025371131471	0
11	8019	56.025417131471	1
11	8030	56.039811131471	0
11	8037	56.039857131471	1
11	8048	56.054591131471	0
11	8055	56.054637131471	1
11	8065	56.073371131471	0
11	8072	56.073417131471	1
11	8152	56.923223131471	0
11	8159	56.923273131471	1
11	8261	57.923223131471	0
11	8268	57.923273131471	1
11	8354	58.923223131471	0
11	8361	58.923273131471	1
11	8463	59.923223131471	0
11	8470	59.923273131471	1
11	8556	60.923223131471	0
11	8563	60.923273131471	1
11	8651	61.923223131471	0
11	8658	61.923273131471	1
11	8666	61.939723131471	0
11	8673	61.939773131471	1
11	8761	62.923223131471	0
11	8768	62.923273131471	1
11	8775	62.930783131471	0
11	8782	62.930833131471	1
11	8871	63.923223131471	0
11	8878	63.923273131471	1
11	8886	63.939843131471	0
11	8893	63.939893131471	1
11	8996	64.923223131471	0
11	9003	64.923273131471	1
11	9106	65.923223131471	0
11	9113	65.923273131471	1
11	9235	66.923223131471	0
11	9242	66.923273131471	1
11	9250	66.934723131471	0
11	9257	66.935253131471	1
11	9268	66.954347131471	0
11	9275	66.954877131471	1
11	9284	66.957191131471	0
11	9291	66.957721131471	1
11	9300	66.961935131471	0
11	9307	66.962465131471	1
11	9318	66.968659131471	0
11	9325	66.969189131471	1
11	9337	66.985003131471	0
11	9344	66.985533131471	1
11	9357	67.003507131471	0
11	9364	67.004037131471	1
11	9373	67.004351131471	0
11	9380	67.004397131471	1
11	9389	67.005251131471	0
11	9396	67.005297131471	1
11	9405	67.006171131471	0
11	9412	67.006217131471	1
11	9421	67.009031131471	0
11	9428	67.009077131471	1
11	9437	67.009431131471	0
11	9444	67.009477131471	1
11	9459	67.029891131471	0
11	9466	67.029937131471	1
11	9476	67.048091131471	0
11	9483	67.048137131471	1
11	9601	67.923223131471	0
11	9608	67.923273131471	1
11	9712	68.923223131471	0
11	9719	68.923753131471	1
11	9729	68.943187131471	0
11	9736	68.943717131471	1
11	9747	68.955351131471	0
11	9754	68.955881131471	1
11	9763	68.964075131471	0
11	9770	68.964605131471	1
11	9780	68.965919131471	0
11	9787	68.966449131471	1
11	9799	68.984283131471	0
11	9806	68.984813131471	1
11	9816	68.999987131471	0
11	9826	69.000517131471	1
11	9835	69.001171131471	0
11	9842	69.001217131471	1
11	9851	69.001791131471	0
[...]
107	5292	25	0
107	5292	25.1	0
107	5292	25.2	0
107	5292	25.3	0
107	5292	25.4	0
107	5292	25.5	0
107	5292	25.6	0
107	5292	25.7	0
107	5292	25.8	0
107	5292	25.9	0
107	5292	26	0
107	5292	26.1	0
107	5292	26.2	0
107	5292	26.3	0
107	5292	26.4	0
107	5292	26.5	0
107	5292	26.6	0
107	5292	26.7	0
107	5292	26.8	0
107	5292	26.9	0
107	5292	27	0
107	5292	27.1	0
107	5292	27.2	0
107	5292	27.3	0
107	5292	27.4	0
107	5292	27.5	0
107	5292	27.6	0
107	5292	27.7	0
107	5292	27.8	0
107	5292	27.9	0
107	5292	28	0
107	5292	28.1	0
107	5292	28.2	0
107	5292	28.3	0
107	5292	28.4	0
107	5292	28.5	0
107	5292	28.6	0
107	5292	28.7	0
107	5292	28.8	0
107	5292	28.9	0
107	5292	29	0
107	5292	29.1	0
107	5292	29.2	0
107	5292	29.3	0
107	5292	29.4	0
107	5292	29.5	0
107	5292	29.6	0
107	5292	29.7	0
107	5292	29.8	0
107	5292	29.9	0
107	5292	30	0
107	5292	30.1	0
107	5292	30.2	0
107	5292	30.3	0
107	5292	30.4	0
107	5292	30.5	0
107	5292	30.6	0
107	5292	30.7	0
107	5292	30.8	0
107	5292	30.9	0
107	5292	31	0
107	5292	31.1	0
107	5292	31.2	0
107	5292	31.3	0
107	5292	31.4	0
107	5292	31.5	0
107	5292	31.6	0
107	5292	31.7	0
107	5292	31.8	0
107	5292	31.9	0
107	5292	32	0
107	5292	32.1	0
107	5292	32.2	0
107	5292	32.3	0
107	5292	32.4	0
107	5292	32.5	0
107	5292	32.6	0
107	5292	32.7	0
107	5292	32.8	0
107	5292	32.9	0
107	5292	33	0
107	5292	33.1	0
107	5292	33.2	0
107	5292	33.3	0
107	5292	33.4	0
107	5292	33.5	0
107	5292	33.6	0
107	5292	33.7	0
107	5292	33.8	0
107	5292	33.9	0
107	5292	34	0
107	5292	34.1	0
107	5292	34.2	0
107	5292	34.3	0
107	5292	34.4	0
107	5292	34.5	0
107	5292	34.6	0
107	5292	34.7	0
107	5292	34.8	0
107	5292	34.9	0
107	5292	35	0
107	5292	35.1	0
107	5292	35.2	0
107	5292	35.3	0
107	5292	35.4	0
107	5292	35.5	0
107	5292	35.6	0
107	5292	35.7	0
107	5292	35.8	0
107	5292	35.9	0
107	5292	36	0
107	5292	36.1	0
107	5292	36.2	0
107	5292	36.3	0
107	5292	36.4	0
107	5292	36.5	0
107	5292	36.6	0
107	5292	36.7	0
107	5292	36.8	0
107	5292	36.9	0
107	5292	37	0
107	5292	37.1	0
107	5292	37.2	0
107	5292	37.3	0
107	5292	37.4	0
107	5292	37.5	0
107	5292	37.6	0
107	5292	37.7	0
107	5292	37.8	0
107	5292	37.9	0
107	5292	38	0
107	5292	38.1	0
107	5292	38.2	0
107	5292	38.3	0
107	5292	38.4	0
107	5292	38.5	0
107	5292	38.6	0
107	5292	38.7	0
107	5292	38.8	0
107	5292	38.9	0
107	5292	39	0
107	5292	39.1	0
107	5292	39.2	0
107	5292	39.3	0
107	5292	39.4	0
107	5292	39.5	0
107	5292	39.6	0
107	5292	39.7	0
107	5292	39.8	0
107	5292	39.9	0
107	5292	40	0
107	5292	40.1	0
107	5292	40.2	0
107	5292	40.3	0
107	5292	40.4	0
107	5292	40.5	0
107	5292	40.6	0
107	5292	40.7	0
107	5292	40.8	0
107	5292	40.9	0
108	5292	40.925278994006	0.002055862535
109	5292	40.925278994006	40
110	5322	41	1454
111	5325	41	1462
112	5326	41	28
112	5458	42	28
112	5592	43	28
113	5337	41.00005	64
113	5472	42.00005	64
113	5606	43.00005	64
114	5337	41.00005	64
114	5472	42.00005	64
114	5606	43.00005	64
115	5726	44	1482
116	6530	49.926017131471	1500
116	6547	49.929221131471	1500
116	6563	49.930645131471	1500
116	6580	49.933649131471	1500
116	6602	49.950333131471	1500
116	6618	49.951637131471	1500
116	6651	49.953017131471	46
116	6667	49.953517131471	46
116	6683	49.953997131471	46
116	6699	49.958557131471	46
116	6721	49.965497131471	46
116	6739	49.975817131471	46
116	6885	50.957577131471	1500
116	6901	50.964741131471	1500
116	6919	50.977925131471	1500
116	6935	50.980469131471	1500
116	6952	50.988013131471	1500
116	6969	50.997197131471	1500
116	7001	50.997937131471	46
116	7018	50.998517131471	46
116	7037	51.001817131471	46
116	7053	51.004857131471	46
116	7075	51.019197131471	46
116	7093	51.038677131471	46
116	7529	54.935977131471	1500
116	7545	54.937021131471	1500
116	7561	54.939865131471	1500
116	7577	54.943869131471	1500
116	7598	54.956713131471	1500
116	7615	54.968157131471	1500
116	7647	54.970197131471	46
116	7663	54.971677131471	46
116	7679	54.972837131471	46
116	7695	54.975697131471	46
116	7717	54.994877131471	46
116	7737	55.012197131471	46
116	7861	55.936157131471	1500
116	7877	55.945981131471	1500
116	7894	55.948445131471	1500
116	7910	55.949429131471	1500
116	7928	55.956433131471	1500
116	7947	55.969017131471	1500
116	7981	55.989477131471	46
116	8001	56.008637131471	46
116	8018	56.025417131471	46
116	8036	56.039857131471	46
116	8054	56.054637131471	46
116	8071	56.073417131471	46
116	9274	66.954877131471	1500
116	9290	66.957721131471	1500
116	9306	66.962465131471	1500
116	9324	66.969189131471	1500
116	9343	66.985533131471	1500
116	9363	67.004037131471	1500
116	9395	67.005297131471	46
116	9411	67.006217131471	46
116	9427	67.009077131471	46
116	9443	67.009477131471	46
116	9465	67.029937131471	46
116	9482	67.048137131471	46
116	9735	68.943717131471	1500
116	9753	68.955881131471	1500
116	9769	68.964605131471	1500
116	9786	68.966449131471	1500
116	9805	68.984813131471	1500
116	9825	69.000517131471	1500
116	9857	69.001837131471	46
116	9873	69.002057131471	46
116	9889	69.004197131471	46
116	9909	69.014177131471	46
116	9926	69.020417131471	46
116	9943	69.027417131471	46
116	10066	69.931617131471	1500
116	10084	69.946281131471	1500
116	10101	69.955145131471	1500
116	10118	69.964089131471	1500
116	10135	69.965393131471	1500
116	10154	69.984697131471	1500
116	10191	70.008917131471	46
116	10208	70.021677131471	46
116	10225	70.040757131471	46
116	10243	70.057977131471	46
116	10260	70.068157131471	46
116	10276	70.068437131471	46
116	10707	72.965297131471	1500
116	10725	72.979021131471	1500
116	10741	72.984485131471	1500
116	10758	72.992409131471	1500
116	10779	73.012933131471	1500
116	10796	73.030837131471	1500
116	10828	73.032697131471	46
116	10844	73.033457131471	46
116	10860	73.036557131471	46
116	10880	73.045777131471	46
116	10897	73.051217131471	46
116	10915	73.060237131471	46
116	11312	75.944157131471	1500
116	11328	75.949401131471	1500
116	11349	75.967905131471	1500
116	11367	75.982229131471	1500
116	11383	75.991833131471	1500
116	11403	76.000897131471	1500
116	11436	76.001917131471	46
116	11452	76.002577131471	46
116	11468	76.007197131471	46
116	11487	76.012297131471	46
116	11505	76.019737131471	46
116	11523	76.038817131471	46
116	11896	78.950897131471	1500
116	11916	78.962001131471	1500
116	11936	78.982665131471	1500
116	11954	78.991229131471	1500
116	11977	79.003113131471	1500
116	11995	79.011037131471	1500
116	12031	79.011737131471	46
116	12050	79.013837131471	46
116	12068	79.015717131471	46
116	12089	79.022637131471	46
116	12110	79.037137131471	46
116	12128	79.039577131471	46
116	12541	81.948937131471	1500
116	12561	81.959601131471	1500
116	12580	81.970285131471	1500
116	12599	81.975109131471	1500
116	12618	81.984113131471	1500
116	12637	81.992137131471	1500
116	12673	81.993657131471	46
116	12692	81.994497131471	46
116	12710	81.996097131471	46
116	12731	82.000597131471	46
116	12755	82.019757131471	46
116	12774	82.030657131471	46
116	13049	83.949757131471	1500
116	13069	83.970841131471	1500
116	13088	83.973645131471	1500
116	13108	83.987169131471	1500
116	13126	83.995773131471	1500
116	13149	84.015917131471	1500
116	13185	84.016697131471	46
116	13203	84.018717131471	46
116	13221	84.018977131471	46
116	13239	84.022577131471	46
116	13260	84.027617131471	46
116	13281	84.036037131471	46
116	13492	85.928857131471	1500
116	13510	85.931581131471	1500
116	13529	85.936725131471	1500
116	13550	85.947609131471	1500
116	13570	85.960433131471	1500
116	13590	85.974617131471	1500
117	6624	49.951692131471	1500
117	6746	49.975872131471	46
117	6975	50.997252131471	1500
117	7100	51.038732131471	46
117	7621	54.968212131471	1500
117	7744	55.012252131471	46
117	7953	55.969072131471	1500
117	8078	56.073472131471	46
117	9369	67.004092131471	1500
117	9489	67.048192131471	46
117	9831	69.000572131471	1500
117	9950	69.027472131471	46
117	10160	69.984752131471	1500
117	10283	70.068492131471	46
117	10802	73.030892131471	1500
117	10922	73.060292131471	46
117	11409	76.000952131471	1500
117	11530	76.038872131471	46
117	12002	79.011092131471	1500
117	12137	79.039632131471	46
117	12644	81.992192131471	1500
117	12783	82.030712131471	46
117	13156	84.015972131471	1500
117	13290	84.036092131471	46
117	13597	85.974672131471	1500
118	6624	49.951692131471	1500
118	6746	49.975872131471	46
118	6975	50.997252131471	1500
118	7100	51.038732131471	46
118	7621	54.968212131471	1500
118	7744	55.012252131471	46
118	7953	55.969072131471	1500
118	8078	56.073472131471	46
118	9369	67.004092131471	1500
118	9489	67.048192131471	46
118	9831	69.000572131471	1500
118	9950	69.027472131471	46
118	10160	69.984752131471	1500
118	10283	70.068492131471	46
118	10802	73.030892131471	1500
118	10922	73.060292131471	46
118	11409	76.000952131471	1500
118	11530	76.038872131471	46
118	12002	79.011092131471	1500
118	12137	79.039632131471	46
118	12644	81.992192131471	1500
118	12783	82.030712131471	46
118	13156	84.015972131471	1500
118	13290	84.036092131471	46
118	13597	85.974672131471	1500
119	6624	49.951692131471	1500
119	6746	49.975872131471	46
119	6975	50.997252131471	1500
119	7100	51.038732131471	46
119	7621	54.968212131471	1500
119	7744	55.012252131471	46
119	7953	55.969072131471	1500
119	8078	56.073472131471	46
119	9369	67.004092131471	1500
119	9489	67.048192131471	46
119	9831	69.000572131471	1500
119	9950	69.027472131471	46
119	10160	69.984752131471	1500
119	10283	70.068492131471	46
119	10802	73.030892131471	1500
119	10922	73.060292131471	46
119	11409	76.000952131471	1500
119	11530	76.038872131471	46
119	12002	79.011092131471	1500
119	12137	79.039632131471	46
119	12644	81.992192131471	1500
119	12783	82.030712131471	46
119	13156	84.015972131471	1500
119	13290	84.036092131471	46
119	13597	85.974672131471	1500
120	11879	78.930793470812	0
120	11879	78.930793470812	0.000144
120	11885	78.930937470812	0
120	11899	78.950897469121	0
120	11899	78.950897469121	0.000144
120	11905	78.951041469121	0
120	11919	78.962001468188	0
120	11919	78.962001468188	0.000144
120	11925	78.962145468188	0
120	11939	78.982665466455	0
120	11939	78.982665466455	0.000144
120	11945	78.982809466455	0
120	11957	78.991229465738	0
120	11957	78.991229465738	0.000144
120	11963	78.991373465738	0
120	11980	79.003113464743	0
120	11980	79.003113464743	0.000144
120	11986	79.003257464743	0
120	11998	79.01103746408	0
120	11998	79.01103746408	0.000144
120	12004	79.01118146408	0
120	12016	79.01139746401	0
120	12016	79.01139746401	4.4e-005
120	12021	79.01144146401	0
120	12034	79.011737463981	0
120	12034	79.011737463981	4.4e-005
120	12039	79.011781463981	0
120	12053	79.013837463806	0
120	12053	79.013837463806	4.4e-005
120	12058	79.013881463806	0
120	12071	79.015717463648	0
120	12071	79.015717463648	4.4e-005
120	12076	79.015761463648	0
120	12092	79.02263746307	0
120	12092	79.02263746307	4.4e-005
120	12097	79.02268146307	0
120	12113	79.03713746186	0
120	12113	79.03713746186	4.4e-005
120	12118	79.03718146186	0
120	12131	79.039577461656	0
120	12131	79.039577461656	4.4e-005
120	12136	79.039621461656	0
120	12525	81.937893298337	0
120	12525	81.937893298337	0.000144
120	12531	81.938037298337	0
120	12544	81.948937298309	0
120	12544	81.948937298309	0.000144
120	12550	81.949081298309	0
120	12564	81.959601298288	0
120	12564	81.959601298288	0.000144
120	12570	81.959745298288	0
120	12583	81.970285298274	0
120	12583	81.970285298274	0.000144
120	12589	81.970429298274	0
120	12602	81.975109298269	0
120	12602	81.975109298269	0.000144
120	12608	81.975253298269	0
120	12621	81.984113298265	0
120	12621	81.984113298265	0.000144
120	12627	81.984257298265	0
120	12640	81.992137298264	0
120	12640	81.992137298264	0.000144
120	12646	81.992281298264	0
120	12658	81.992837298265	0
120	12658	81.992837298265	4.4e-005
120	12663	81.992881298265	0
120	12676	81.993657298265	0
120	12676	81.993657298265	4.4e-005
120	12681	81.993701298265	0
120	12695	81.994497298265	0
120	12695	81.994497298265	4.4e-005
120	12700	81.994541298265	0
120	12713	81.996097298266	0
120	12713	81.996097298266	4.4e-005
120	12718	81.996141298266	0
120	12734	82.000597298268	0
120	12734	82.000597298268	4.4e-005
120	12739	82.000641298268	0
120	12758	82.019757298292	0
120	12758	82.019757298292	4.4e-005
120	12763	82.019801298292	0
120	12777	82.030657298314	0
120	12777	82.030657298314	4.4e-005
120	12782	82.030701298314	0
120	13032	83.932733382696	0
120	13032	83.932733382696	0.000144
120	13038	83.932877382696	0
120	13052	83.949757383928	0
120	13052	83.949757383928	0.000144
120	13058	83.949901383928	0
120	13072	83.970841385461	0
120	13072	83.970841385461	0.000144
120	13078	83.970985385461	0
120	13091	83.973645385666	0
120	13091	83.973645385666	0.000144
120	13097	83.973789385666	0
120	13111	83.987169386653	0
120	13111	83.987169386653	0.000144
120	13117	83.987313386653	0
120	13129	83.995773387283	0
120	13129	83.995773387283	0.000144
120	13135	83.995917387283	0
120	13152	84.015917388762	0
120	13152	84.015917388762	0.000144
120	13158	84.016061388762	0
120	13170	84.016417388835	0
120	13170	84.016417388835	4.4e-005
120	13175	84.016461388835	0
120	13188	84.016697388856	0
120	13188	84.016697388856	4.4e-005
120	13193	84.016741388856	0
120	13206	84.018717389004	0
120	13206	84.018717389004	4.4e-005
120	13211	84.018761389004	0
120	13224	84.018977389023	0
120	13224	84.018977389023	4.4e-005
120	13229	84.019021389023	0
120	13242	84.022577389289	0
120	13242	84.022577389289	4.4e-005
120	13247	84.022621389289	0
120	13263	84.02761738966	0
120	13263	84.02761738966	4.4e-005
120	13268	84.02766138966	0
120	13284	84.036037390282	0
120	13284	84.036037390282	4.4e-005
120	13289	84.036081390282	0
120	13477	85.923753488132	0
120	13477	85.923753488132	0.000144
120	13483	85.923897488132	0
120	13495	85.928857488041	0
120	13495	85.928857488041	0.000144
120	13501	85.929001488041	0
120	13513	85.931581487992	0
120	13513	85.931581487992	0.000144
120	13519	85.931725487992	0
120	13532	85.9367254879	0
120	13532	85.9367254879	0.000144
120	13538	85.9368694879	0
120	13553	85.947609487705	0
120	13553	85.947609487705	0.000144
120	13559	85.947753487705	0
120	13573	85.960433487475	0
120	13573	85.960433487475	0.000144
120	13579	85.960577487475	0
120	13593	85.974617487221	0
120	13593	85.974617487221	0.000144
120	13599	85.974761487221	0
120	13611	85.974857487208	0
120	13611	85.974857487208	4.4e-005
120	13616	85.974901487208	0
121	11879	78.930793470812	1500
121	11899	78.950897469121	1500
121	11919	78.962001468188	1500
121	11939	78.982665466455	1500
121	11957	78.991229465738	1500
121	11980	79.003113464743	1500
121	11998	79.01103746408	1500
121	12016	79.01139746401	46
121	12034	79.011737463981	46
121	12053	79.013837463806	46
121	12071	79.015717463648	46
121	12092	79.02263746307	46
121	12113	79.03713746186	46
121	12131	79.039577461656	46
121	12525	81.937893298337	1500
121	12544	81.948937298309	1500
121	12564	81.959601298288	1500
121	12583	81.970285298274	1500
121	12602	81.975109298269	1500
121	12621	81.984113298265	1500
121	12640	81.992137298264	1500
121	12658	81.992837298265	46
121	12676	81.993657298265	46
121	12695	81.994497298265	46
121	12713	81.996097298266	46
121	12734	82.000597298268	46
121	12758	82.019757298292	46
121	12777	82.030657298314	46
121	13032	83.932733382696	1500
121	13052	83.949757383928	1500
121	13072	83.970841385461	1500
121	13091	83.973645385666	1500
121	13111	83.987169386653	1500
121	13129	83.995773387283	1500
121	13152	84.015917388762	1500
121	13170	84.016417388835	46
121	13188	84.016697388856	46
121	13206	84.018717389004	46
121	13224	84.018977389023	46
121	13242	84.022577389289	46
121	13263	84.02761738966	46
121	13284	84.036037390282	46
121	13477	85.923753488132	1500
121	13495	85.928857488041	1500
121	13513	85.931581487992	1500
121	13532	85.9367254879	1500
121	13553	85.947609487705	1500
121	13573	85.960433487475	1500
121	13593	85.974617487221	1500
121	13611	85.974857487208	46
122	11879	78.930793470812	1500
122	11899	78.950897469121	1500
122	11919	78.962001468188	1500
122	11939	78.982665466455	1500
122	11957	78.991229465738	1500
122	11980	79.003113464743	1500
122	11998	79.01103746408	1500
122	12016	79.01139746401	46
122	12034	79.011737463981	46
122	12053	79.013837463806	46
122	12071	79.015717463648	46
122	12092	79.02263746307	46
122	12113	79.03713746186	46
122	12131	79.039577461656	46
122	12525	81.937893298337	1500
122	12544	81.948937298309	1500
122	12564	81.959601298288	1500
122	12583	81.970285298274	1500
122	12602	81.975109298269	1500
122	12621	81.984113298265	1500
122	12640	81.992137298264	1500
122	12658	81.992837298265	46
122	12676	81.993657298265	46
122	12695	81.994497298265	46
122	12713	81.996097298266	46
122	12734	82.000597298268	46
122	12758	82.019757298292	46
122	12777	82.030657298314	46
122	13032	83.932733382696	1500
122	13052	83.949757383928	1500
122	13072	83.970841385461	1500
122	13091	83.973645385666	1500
122	13111	83.987169386653	1500
122	13129	83.995773387283	1500
122	13152	84.015917388762	1500
122	13170	84.016417388835	46
122	13188	84.016697388856	46
122	13206	84.018717389004	46
122	13224	84.018977389023	46
122	13242	84.022577389289	46
122	13263	84.02761738966	46
122	13284	84.036037390282	46
122	13477	85.923753488132	1500
122	13495	85.928857488041	1500
122	13513	85.931581487992	1500
122	13532	85.9367254879	1500
122	13553	85.947609487705	1500
122	13573	85.960433487475	1500
122	13593	85.974617487221	1500
122	13611	85.974857487208	46
123	11879	78.930793470812	1500
123	11899	78.950897469121	1500
123	11919	78.962001468188	1500
123	11939	78.982665466455	1500
123	11957	78.991229465738	1500
123	11980	79.003113464743	1500
123	11998	79.01103746408	1500
123	12016	79.01139746401	46
123	12034	79.011737463981	46
123	12053	79.013837463806	46
123	12071	79.015717463648	46
123	12092	79.02263746307	46
123	12113	79.03713746186	46
123	12131	79.039577461656	46
123	12525	81.937893298337	1500
123	12544	81.948937298309	1500
123	12564	81.959601298288	1500
123	12583	81.970285298274	1500
123	12602	81.975109298269	1500
123	12621	81.984113298265	1500
123	12640	81.992137298264	1500
123	12658	81.992837298265	46
123	12676	81.993657298265	46
123	12695	81.994497298265	46
123	12713	81.996097298266	46
123	12734	82.000597298268	46
123	12758	82.019757298292	46
123	12777	82.030657298314	46
123	13032	83.932733382696	1500
123	13052	83.949757383928	1500
123	13072	83.970841385461	1500
123	13091	83.973645385666	1500
123	13111	83.987169386653	1500
123	13129	83.995773387283	1500
123	13152	84.015917388762	1500
123	13170	84.016417388835	46
123	13188	84.016697388856	46
123	13206	84.018717389004	46
123	13224	84.018977389023	46
123	13242	84.022577389289	46
123	13263	84.02761738966	46
123	13284	84.036037390282	46
123	13477	85.923753488132	1500
123	13495	85.928857488041	1500
123	13513	85.931581487992	1500
123	13532	85.9367254879	1500
123	13553	85.947609487705	1500
123	13573	85.960433487475	1500
123	13593	85.974617487221	1500
123	13611	85.974857487208	46
124	11879	78.930793470812	1500
124	11899	78.950897469121	1500
124	11919	78.962001468188	1500
124	11939	78.982665466455	1500
124	11957	78.991229465738	1500
124	11980	79.003113464743	1500
124	11998	79.01103746408	1500
124	12016	79.01139746401	46
124	12034	79.011737463981	46
124	12053	79.013837463806	46
124	12071	79.015717463648	46
124	12092	79.02263746307	46
124	12113	79.03713746186	46
124	12131	79.039577461656	46
124	12525	81.937893298337	1500
124	12544	81.948937298309	1500
124	12564	81.959601298288	1500
124	12583	81.970285298274	1500
124	12602	81.975109298269	1500
124	12621	81.984113298265	1500
124	12640	81.992137298264	1500
124	12658	81.992837298265	46
124	12676	81.993657298265	46
124	12695	81.994497298265	46
124	12713	81.996097298266	46
124	12734	82.000597298268	46
124	12758	82.019757298292	46
124	12777	82.030657298314	46
124	13032	83.932733382696	1500
124	13052	83.949757383928	1500
124	13072	83.970841385461	1500
124	13091	83.973645385666	1500
124	13111	83.987169386653	1500
124	13129	83.995773387283	1500
124	13152	84.015917388762	1500
124	13170	84.016417388835	46
124	13188	84.016697388856	46
124	13206	84.018717389004	46
124	13224	84.018977389023	46
124	13242	84.022577389289	46
124	13263	84.02761738966	46
124	13284	84.036037390282	46
124	13477	85.923753488132	1500
124	13495	85.928857488041	1500
124	13513	85.931581487992	1500
124	13532	85.9367254879	1500
124	13553	85.947609487705	1500
124	13573	85.960433487475	1500
124	13593	85.974617487221	1500
124	13611	85.974857487208	46

