version 2
run Sim4drone-0-20210718-14:18:36-21020
attr configname Sim4drone
attr datetime 20210718-14:18:36
attr experiment Sim4drone
attr inifile mobilityDrones-omnetpp.ini
attr iterationvars ""
attr iterationvarsf ""
attr measurement ""
attr network mobilityDrones
attr processid 21020
attr repetition 0
attr replication #0
attr resultdir results
attr runnumber 0
attr seedset 0
param *.numUAVs 4
param *.drones[0].app[0].destAddresses "\"drones[1] drones[2] drones[3]\""
param *.drones[1].app[0].destAddresses "\"drones[0] drones[2] drones[3]\""
param *.drones[2].app[0].destAddresses "\"drones[0] drones[1] drones[3]\""
param *.drones[3].app[0].destAddresses "\"drones[0] drones[1] drones[2]\""
param *.drones[*].mobility.waypointFile "\"paths/mission.txt\""
param *.drones[*].app[*].timeoutDuration 5s
param *.drones[0].mobility.startTime 0s
param *.drones[1].mobility.startTime 40s
param *.drones[2].mobility.startTime 80s
param *.drones[3].mobility.startTime 110s
param *.drones[0].app[*].startTime "normal(1s, 1s)"
param *.drones[1].app[*].startTime "normal(40s, 1s)"
param *.drones[2].app[*].startTime "normal(80s, 1s)"
param *.drones[3].app[*].startTime "normal(110s, 1s)"
param *.sensor.osgModel "\"3d/drone.ive.100.scale.0,0,90.rot\""
param *.sensor.mobility.typename "\"StationaryMobility\""
param *.sensor*.mobility.coordinateSystemModule "\"\""
param *.sensor*.numApps 1
param *.sensor*.app[0].typename "\"UdpSensorCommunicationApp\""
param *.sensor*.app[0].destAddresses "\"drones[0] drones[1] drones[2] drones[3]\""
param *.sensor*.app[0].destPort 1000
param *.sensor*.app[0].sendInterval 5s
param *.sensor*.app[0].startTime exponential(1s)
param *.sensor*.app[0].messageLength 1454Byte
param *.sensor1.mobility.initialX 400m
param *.sensor1.mobility.initialY -200m
param *.sensor1.mobility.initialZ 3m
param *.visualizer.osgVisualizer.typename "\"IntegratedOsgVisualizer\""
param *.visualizer.osgVisualizer.sceneVisualizer.typename "\"SceneOsgEarthVisualizer\""
param *.visualizer.osgVisualizer.sceneVisualizer.mapFile "\"map.earth\""
param *.visualizer.osgVisualizer.sceneVisualizer.sceneImageSize 10000m
param *.visualizer.osgVisualizer.sceneVisualizer.axisLength 500m
param *.visualizer.osgVisualizer.sceneVisualizer.sceneMinX -200m
param *.visualizer.osgVisualizer.sceneVisualizer.sceneMinY -200m
param *.visualizer.osgVisualizer.sceneVisualizer.sceneMinZ 0m
param *.visualizer.osgVisualizer.sceneVisualizer.sceneMaxX 5000m
param *.visualizer.osgVisualizer.sceneVisualizer.sceneMaxY 5000m
param *.visualizer.osgVisualizer.sceneVisualizer.sceneMaxZ 5000m
param *.visualizer.osgVisualizer.networkNodeVisualizer.displayModuleName true
param *.visualizer.*.statisticVisualizer.signalName "\"dataLoad\""
param *.visualizer.*.statisticVisualizer.format "\"%s: (%v/20)\""
param *.visualizer.*.statisticVisualizer.sourceFilter "\"*.drones[*].**\""
param *.visualizer.*.mobilityVisualizer.displayMobility true
param *.visualizer.*.mobilityVisualizer.displayPositions true
param *.visualizer.*.mobilityVisualizer.displayOrientations true
param *.visualizer.*.mobilityVisualizer.displayVelocities true
param *.visualizer.*.mobilityVisualizer.displayMovementTrails true
param *.visualizer.*.mobilityVisualizer.animationSpeed 10
param *.visualizer.mediumVisualizer.displaySignals true
param **.constraintAreaMinX -5000m
param **.constraintAreaMinY -5000m
param **.constraintAreaMinZ -100m
param **.constraintAreaMaxX 5000m
param **.constraintAreaMaxY 5000m
param **.constraintAreaMaxZ 5000m
param *.drones*.wlan[0].radio.displayCommunicationRange true
param *.coordinateSystem.sceneLongitude -47.926634deg
param *.coordinateSystem.sceneLatitude -15.840075deg
param *.coordinateSystem.sceneHeading 90deg
param *.environment.ground.typename "\"FlatGround\""
param *.drones[*].osgModel "\"3d/drone.ive.80.scale.0,0,90.rot\""
param *.drones[*].mobility.coordinateSystemModule "\"coordinateSystem\""
param *.drones[*].mobility.waypointFile "\"paths/gradys-vai-e-volta-descendo-5s-v1.txt\""
param *.drones[*].mobility.waypointProximity 1m
param **.mobility.initFromDisplayString false
param *.drones[*].mobility.speed 10mps
param *.drones[*].numApps 1
param *.drones[*].app[0].typename "\"UdpMobileNodeCommunicationApp\""
param *.drones[*].app[0].localPort 1000
param *.drones[*].app[0].destPort 1000
param *.drones[*].app[0].sendInterval 1s
param *.drones[*].app[0].startTime 1s
param *.drones[*].app[0].stopTime -1s
param *.drones[*].app[0].messageLength 1454Byte
param *.drones[*].app[0].packetName "\"UAV-DEFAULT-PAYLOAD\""
param *.drones[*].mobility.typename "\"DroneMobility\""
param *.sensor.osgModel "\"3d/drone.ive.100.scale.0,0,90.rot\""
param *.sensor.mobility.typename "\"StationaryMobility\""
param *.sensor*.mobility.coordinateSystemModule "\"\""

vector 0 mobilityDrones.drones[0].wlan[0].radio radioMode:vector ETV
attr interpolationmode sample-hold
attr source radioModeChanged
attr title "Radio mode, vector"
vector 1 mobilityDrones.drones[0].wlan[0].radio radioChannel:vector ETV
attr interpolationmode sample-hold
attr source radioChannelChanged
attr title "Radio channel, vector"
vector 2 mobilityDrones.drones[1].wlan[0].radio radioMode:vector ETV
attr interpolationmode sample-hold
attr source radioModeChanged
attr title "Radio mode, vector"
vector 3 mobilityDrones.drones[1].wlan[0].radio radioChannel:vector ETV
attr interpolationmode sample-hold
attr source radioChannelChanged
attr title "Radio channel, vector"
vector 4 mobilityDrones.drones[2].wlan[0].radio radioMode:vector ETV
attr interpolationmode sample-hold
attr source radioModeChanged
attr title "Radio mode, vector"
vector 5 mobilityDrones.drones[2].wlan[0].radio radioChannel:vector ETV
attr interpolationmode sample-hold
attr source radioChannelChanged
attr title "Radio channel, vector"
vector 6 mobilityDrones.drones[3].wlan[0].radio radioMode:vector ETV
attr interpolationmode sample-hold
attr source radioModeChanged
attr title "Radio mode, vector"
vector 7 mobilityDrones.drones[3].wlan[0].radio radioChannel:vector ETV
attr interpolationmode sample-hold
attr source radioChannelChanged
attr title "Radio channel, vector"
vector 8 mobilityDrones.sensor1.wlan[0].radio radioMode:vector ETV
attr interpolationmode sample-hold
attr source radioModeChanged
attr title "Radio mode, vector"
vector 9 mobilityDrones.sensor1.wlan[0].radio radioChannel:vector ETV
attr interpolationmode sample-hold
attr source radioChannelChanged
attr title "Radio channel, vector"
vector 10 mobilityDrones.drones[0].wlan[0].radio receptionState:vector ETV
attr interpolationmode sample-hold
attr source receptionStateChanged
attr title "Radio reception state, vector"
vector 11 mobilityDrones.drones[1].wlan[0].radio receptionState:vector ETV
attr interpolationmode sample-hold
attr source receptionStateChanged
attr title "Radio reception state, vector"
vector 12 mobilityDrones.drones[2].wlan[0].radio receptionState:vector ETV
attr interpolationmode sample-hold
attr source receptionStateChanged
attr title "Radio reception state, vector"
vector 13 mobilityDrones.drones[3].wlan[0].radio receptionState:vector ETV
attr interpolationmode sample-hold
attr source receptionStateChanged
attr title "Radio reception state, vector"
vector 14 mobilityDrones.sensor1.wlan[0].radio receptionState:vector ETV
attr interpolationmode sample-hold
attr source receptionStateChanged
attr title "Radio reception state, vector"
vector 15 mobilityDrones.drones[0].wlan[0].mac.dcf.recoveryProcedure contentionWindowChanged:vector ETV
attr interpolationmode sample-hold
attr title "contention window, vector"
vector 16 mobilityDrones.drones[1].wlan[0].mac.dcf.recoveryProcedure contentionWindowChanged:vector ETV
attr interpolationmode sample-hold
attr title "contention window, vector"
vector 17 mobilityDrones.drones[2].wlan[0].mac.dcf.recoveryProcedure contentionWindowChanged:vector ETV
attr interpolationmode sample-hold
attr title "contention window, vector"
vector 18 mobilityDrones.drones[3].wlan[0].mac.dcf.recoveryProcedure contentionWindowChanged:vector ETV
attr interpolationmode sample-hold
attr title "contention window, vector"
vector 19 mobilityDrones.sensor1.wlan[0].mac.dcf.recoveryProcedure contentionWindowChanged:vector ETV
attr interpolationmode sample-hold
attr title "contention window, vector"
vector 20 mobilityDrones.drones[0].app[0] packetSent:vector(packetBytes) ETV
attr interpolationmode none
attr source packetSent
attr title "packets sent, vector(packetBytes)"
vector 21 mobilityDrones.drones[0].udp packetSent:vector(packetBytes) ETV
attr interpolationmode none
attr source packetSent
attr title "packets sent, vector(packetBytes)"
vector 22 mobilityDrones.drones[0].lo[0].lo rcvdPkFromHl:vector(packetBytes) ETV
attr interpolationmode none
attr source packetReceivedFromUpper
attr title "packets received from higher layer, vector(packetBytes)"
vector 23 mobilityDrones.drones[0].lo[0].lo passedUpPk:vector(packetBytes) ETV
attr interpolationmode none
attr source packetSentToUpper
attr title "packets passed to higher layer, vector(packetBytes)"
vector 24 mobilityDrones.drones[0].wlan[0].mac packetReceivedFromUpper:vector(packetBytes) ETV
attr interpolationmode none
attr title "packets received from upper layer, vector(packetBytes)"
vector 25 mobilityDrones.drones[0].wlan[0].mac.dcf.channelAccess.pendingQueue packetPushed:vector(packetBytes) ETV
attr interpolationmode none
attr title "packet pushed, vector(packetBytes)"
vector 26 mobilityDrones.drones[0].wlan[0].mac.dcf.channelAccess.pendingQueue queueLength:vector ETV
attr interpolationmode sample-hold
attr source "count(packetPushed) - count(packetPopped) - count(packetRemoved) - count(packetDropped)"
attr title "queue length, vector"
vector 27 mobilityDrones.drones[0].wlan[0].mac.dcf.channelAccess.contention backoffPeriodGenerated:vector ETV
attr interpolationmode none
attr title "backoff periods, vector"
vector 28 mobilityDrones.drones[0].wlan[0].mac.dcf.channelAccess.contention backoffActive:vector ETV
attr interpolationmode sample-hold
attr source count(backoffStarted)-count(backoffStopped)
attr title "backoff active, vector"
vector 29 mobilityDrones.drones[0].udp packetReceived:vector(packetBytes) ETV
attr interpolationmode none
attr source packetReceived
attr title "packets received, vector(packetBytes)"
vector 30 mobilityDrones.drones[0].udp passedUpPk:vector(count) ETV
attr interpolationmode none
attr source packetSentToUpper
attr title "packets passed up, vector(count)"
vector 31 mobilityDrones.drones[0].wlan[0].mac.dcf.channelAccess.pendingQueue packetPopped:vector(packetBytes) ETV
attr interpolationmode none
attr title "packet popped, vector(packetBytes)"
vector 32 mobilityDrones.drones[0].wlan[0].mac.dcf.channelAccess.pendingQueue queueingTime:vector ETV
attr interpolationmode none
attr source queueingTime(packetPopped)
attr title "queueing times, vector"
attr unit s
vector 33 mobilityDrones.drones[0].wlan[0].mac.dcf.channelAccess.inProgressFrames queueLength:vector ETV
attr interpolationmode sample-hold
attr source "count(packetEnqueued) - count(packetDequeued)"
attr title "queue length, vector"
vector 34 mobilityDrones.drones[0].wlan[0].mac.dcf datarateSelected:vector ETV
attr interpolationmode none
attr title "datarates selected, vector"
vector 35 mobilityDrones.drones[0].wlan[0].mac packetSentToLower:vector(packetBytes) ETV
attr interpolationmode none
attr title "packets sent to lower layer, vector(packetBytes)"
vector 36 mobilityDrones.drones[0].wlan[0].mac.dcf frameSequenceActive:vector ETV
attr interpolationmode sample-hold
attr source count(frameSequenceStarted)-count(frameSequenceFinished)
attr title "frame sequence active, vector"
vector 37 mobilityDrones.drones[0].wlan[0].radio transmissionState:vector ETV
attr interpolationmode sample-hold
attr source transmissionStateChanged
attr title "Radio transmission state, vector"
vector 38 mobilityDrones.drones[0].wlan[0].mac.dcf packetSentToPeer:vector(packetBytes) ETV
attr interpolationmode none
attr title "packets sent, vector(packetBytes)"
vector 39 mobilityDrones.drones[0].wlan[0].mac.dcf packetSentToPeerMulticast:vector(packetBytes) ETV
attr interpolationmode none
attr source ieee80211Multicast(packetSentToPeer)
attr title "packets sent: multicast, vector(packetBytes)"
vector 40 mobilityDrones.drones[0].wlan[0].mac.dcf packetSentToPeerWithoutRetry:vector(packetBytes) ETV
attr interpolationmode none
attr source ieee80211NotRetry(packetSentToPeer)
attr title "packets sent: without retry, vector(packetBytes)"
vector 41 mobilityDrones.drones[0].wlan[0].mac.dcf.channelAccess.inProgressFrames queueingTime:vector ETV
attr interpolationmode none
attr source queueingTime(packetDequeued)
attr title "queueing times, vector"
vector 42 mobilityDrones.drones[1].wlan[0].mac packetReceivedFromLower:vector(packetBytes) ETV
attr interpolationmode none
attr title "packets received from lower layer, vector(packetBytes)"
vector 43 mobilityDrones.drones[1].wlan[0].mac.dcf packetReceivedFromPeer:vector(packetBytes) ETV
attr interpolationmode none
attr title "packets received, vector(packetBytes)"
vector 44 mobilityDrones.drones[1].wlan[0].mac.dcf packetReceivedFromPeerMulticast:vector(packetBytes) ETV
attr interpolationmode none
attr source ieee80211Multicast(packetReceivedFromPeer)
attr title "packets received: multicast, vector(packetBytes)"
vector 45 mobilityDrones.drones[1].wlan[0].mac.dcf packetReceivedFromPeerWithoutRetry:vector(packetBytes) ETV
attr interpolationmode none
attr source ieee80211NotRetry(packetReceivedFromPeer)
attr title "packets received: without retry, vector(packetBytes)"
vector 46 mobilityDrones.drones[1].wlan[0].mac packetSentToUpper:vector(packetBytes) ETV
attr interpolationmode none
attr title "packets sent to upper layer, vector(packetBytes)"
vector 47 mobilityDrones.drones[2].wlan[0].mac packetReceivedFromLower:vector(packetBytes) ETV
attr interpolationmode none
attr title "packets received from lower layer, vector(packetBytes)"
vector 48 mobilityDrones.drones[2].wlan[0].mac.dcf packetReceivedFromPeer:vector(packetBytes) ETV
attr interpolationmode none
attr title "packets received, vector(packetBytes)"
vector 49 mobilityDrones.drones[2].wlan[0].mac.dcf packetReceivedFromPeerMulticast:vector(packetBytes) ETV
attr interpolationmode none
attr source ieee80211Multicast(packetReceivedFromPeer)
attr title "packets received: multicast, vector(packetBytes)"
vector 50 mobilityDrones.drones[2].wlan[0].mac.dcf packetReceivedFromPeerWithoutRetry:vector(packetBytes) ETV
attr interpolationmode none
attr source ieee80211NotRetry(packetReceivedFromPeer)
attr title "packets received: without retry, vector(packetBytes)"
vector 51 mobilityDrones.drones[2].wlan[0].mac packetSentToUpper:vector(packetBytes) ETV
attr interpolationmode none
attr title "packets sent to upper layer, vector(packetBytes)"
vector 52 mobilityDrones.drones[3].wlan[0].mac packetReceivedFromLower:vector(packetBytes) ETV
attr interpolationmode none
attr title "packets received from lower layer, vector(packetBytes)"
vector 53 mobilityDrones.drones[3].wlan[0].mac.dcf packetReceivedFromPeer:vector(packetBytes) ETV
attr interpolationmode none
attr title "packets received, vector(packetBytes)"
vector 54 mobilityDrones.drones[3].wlan[0].mac.dcf packetReceivedFromPeerMulticast:vector(packetBytes) ETV
attr interpolationmode none
attr source ieee80211Multicast(packetReceivedFromPeer)
attr title "packets received: multicast, vector(packetBytes)"
vector 55 mobilityDrones.drones[3].wlan[0].mac.dcf packetReceivedFromPeerWithoutRetry:vector(packetBytes) ETV
attr interpolationmode none
attr source ieee80211NotRetry(packetReceivedFromPeer)
attr title "packets received: without retry, vector(packetBytes)"
vector 56 mobilityDrones.drones[3].wlan[0].mac packetSentToUpper:vector(packetBytes) ETV
attr interpolationmode none
attr title "packets sent to upper layer, vector(packetBytes)"
vector 57 mobilityDrones.sensor1.app[0] packetSent:vector(packetBytes) ETV
attr interpolationmode none
attr source packetSent
attr title "packets sent, vector(packetBytes)"
vector 58 mobilityDrones.sensor1.udp packetSent:vector(packetBytes) ETV
attr interpolationmode none
attr source packetSent
attr title "packets sent, vector(packetBytes)"
vector 59 mobilityDrones.sensor1.ipv4.arp arpRequestSent:vector(packetBytes) ETV
attr source arpRequestSent
attr title "ARP request sent, vector(packetBytes)"
vector 60 mobilityDrones.sensor1.wlan[0].mac packetReceivedFromUpper:vector(packetBytes) ETV
attr interpolationmode none
attr title "packets received from upper layer, vector(packetBytes)"
vector 61 mobilityDrones.sensor1.wlan[0].mac.dcf.channelAccess.pendingQueue packetPushed:vector(packetBytes) ETV
attr interpolationmode none
attr title "packet pushed, vector(packetBytes)"
vector 62 mobilityDrones.sensor1.wlan[0].mac.dcf.channelAccess.pendingQueue queueLength:vector ETV
attr interpolationmode sample-hold
attr source "count(packetPushed) - count(packetPopped) - count(packetRemoved) - count(packetDropped)"
attr title "queue length, vector"
vector 63 mobilityDrones.sensor1.wlan[0].mac.dcf.channelAccess.contention backoffPeriodGenerated:vector ETV
attr interpolationmode none
attr title "backoff periods, vector"
vector 64 mobilityDrones.sensor1.wlan[0].mac.dcf.channelAccess.contention backoffActive:vector ETV
attr interpolationmode sample-hold
attr source count(backoffStarted)-count(backoffStopped)
attr title "backoff active, vector"
vector 65 mobilityDrones.sensor1.wlan[0].mac.dcf.channelAccess.pendingQueue packetPopped:vector(packetBytes) ETV
attr interpolationmode none
attr title "packet popped, vector(packetBytes)"
vector 66 mobilityDrones.sensor1.wlan[0].mac.dcf.channelAccess.pendingQueue queueingTime:vector ETV
attr interpolationmode none
attr source queueingTime(packetPopped)
attr title "queueing times, vector"
attr unit s
vector 67 mobilityDrones.sensor1.wlan[0].mac.dcf.channelAccess.inProgressFrames queueLength:vector ETV
attr interpolationmode sample-hold
attr source "count(packetEnqueued) - count(packetDequeued)"
attr title "queue length, vector"
vector 68 mobilityDrones.sensor1.wlan[0].mac.dcf datarateSelected:vector ETV
attr interpolationmode none
attr title "datarates selected, vector"
vector 69 mobilityDrones.sensor1.wlan[0].mac packetSentToLower:vector(packetBytes) ETV
attr interpolationmode none
attr title "packets sent to lower layer, vector(packetBytes)"
vector 70 mobilityDrones.sensor1.wlan[0].mac.dcf frameSequenceActive:vector ETV
attr interpolationmode sample-hold
attr source count(frameSequenceStarted)-count(frameSequenceFinished)
attr title "frame sequence active, vector"
vector 71 mobilityDrones.sensor1.wlan[0].radio transmissionState:vector ETV
attr interpolationmode sample-hold
attr source transmissionStateChanged
attr title "Radio transmission state, vector"
vector 72 mobilityDrones.sensor1.wlan[0].mac.dcf packetSentToPeer:vector(packetBytes) ETV
attr interpolationmode none
attr title "packets sent, vector(packetBytes)"
vector 73 mobilityDrones.sensor1.wlan[0].mac.dcf packetSentToPeerMulticast:vector(packetBytes) ETV
attr interpolationmode none
attr source ieee80211Multicast(packetSentToPeer)
attr title "packets sent: multicast, vector(packetBytes)"
vector 74 mobilityDrones.sensor1.wlan[0].mac.dcf packetSentToPeerBroadcast:vector(packetBytes) ETV
attr interpolationmode none
attr source ieee80211Broadcast(packetSentToPeer)
attr title "packets sent: broadcast , vector(packetBytes)"
vector 75 mobilityDrones.sensor1.wlan[0].mac.dcf packetSentToPeerWithoutRetry:vector(packetBytes) ETV
attr interpolationmode none
attr source ieee80211NotRetry(packetSentToPeer)
attr title "packets sent: without retry, vector(packetBytes)"
vector 76 mobilityDrones.sensor1.wlan[0].mac.dcf.channelAccess.inProgressFrames queueingTime:vector ETV
attr interpolationmode none
attr source queueingTime(packetDequeued)
attr title "queueing times, vector"
vector 77 mobilityDrones.sensor1.ipv4.ip packetDropAddressResolutionFailed:vector(packetBytes) ETV
attr interpolationmode none
attr source packetDropReasonIsAddressResolutionFailed(packetDropped)
attr title "packet drop: address resolution failed, vector(packetBytes)"
vector 78 mobilityDrones.drones[1].app[0] packetSent:vector(packetBytes) ETV
attr interpolationmode none
attr source packetSent
attr title "packets sent, vector(packetBytes)"
vector 79 mobilityDrones.drones[1].udp packetSent:vector(packetBytes) ETV
attr interpolationmode none
attr source packetSent
attr title "packets sent, vector(packetBytes)"
vector 80 mobilityDrones.drones[1].lo[0].lo rcvdPkFromHl:vector(packetBytes) ETV
attr interpolationmode none
attr source packetReceivedFromUpper
attr title "packets received from higher layer, vector(packetBytes)"
vector 81 mobilityDrones.drones[1].lo[0].lo passedUpPk:vector(packetBytes) ETV
attr interpolationmode none
attr source packetSentToUpper
attr title "packets passed to higher layer, vector(packetBytes)"
vector 82 mobilityDrones.drones[1].wlan[0].mac packetReceivedFromUpper:vector(packetBytes) ETV
attr interpolationmode none
attr title "packets received from upper layer, vector(packetBytes)"
vector 83 mobilityDrones.drones[1].wlan[0].mac.dcf.channelAccess.pendingQueue packetPushed:vector(packetBytes) ETV
attr interpolationmode none
attr title "packet pushed, vector(packetBytes)"
vector 84 mobilityDrones.drones[1].wlan[0].mac.dcf.channelAccess.pendingQueue queueLength:vector ETV
attr interpolationmode sample-hold
attr source "count(packetPushed) - count(packetPopped) - count(packetRemoved) - count(packetDropped)"
attr title "queue length, vector"
vector 85 mobilityDrones.drones[1].wlan[0].mac.dcf.channelAccess.contention backoffPeriodGenerated:vector ETV
attr interpolationmode none
attr title "backoff periods, vector"
vector 86 mobilityDrones.drones[1].wlan[0].mac.dcf.channelAccess.contention backoffActive:vector ETV
attr interpolationmode sample-hold
attr source count(backoffStarted)-count(backoffStopped)
attr title "backoff active, vector"
vector 87 mobilityDrones.drones[1].udp packetReceived:vector(packetBytes) ETV
attr interpolationmode none
attr source packetReceived
attr title "packets received, vector(packetBytes)"
vector 88 mobilityDrones.drones[1].udp passedUpPk:vector(count) ETV
attr interpolationmode none
attr source packetSentToUpper
attr title "packets passed up, vector(count)"
vector 89 mobilityDrones.drones[1].wlan[0].mac.dcf.channelAccess.pendingQueue packetPopped:vector(packetBytes) ETV
attr interpolationmode none
attr title "packet popped, vector(packetBytes)"
vector 90 mobilityDrones.drones[1].wlan[0].mac.dcf.channelAccess.pendingQueue queueingTime:vector ETV
attr interpolationmode none
attr source queueingTime(packetPopped)
attr title "queueing times, vector"
attr unit s
vector 91 mobilityDrones.drones[1].wlan[0].mac.dcf.channelAccess.inProgressFrames queueLength:vector ETV
attr interpolationmode sample-hold
attr source "count(packetEnqueued) - count(packetDequeued)"
attr title "queue length, vector"
vector 92 mobilityDrones.drones[1].wlan[0].mac.dcf datarateSelected:vector ETV
attr interpolationmode none
attr title "datarates selected, vector"
vector 93 mobilityDrones.drones[1].wlan[0].mac packetSentToLower:vector(packetBytes) ETV
attr interpolationmode none
attr title "packets sent to lower layer, vector(packetBytes)"
vector 94 mobilityDrones.drones[1].wlan[0].mac.dcf frameSequenceActive:vector ETV
attr interpolationmode sample-hold
attr source count(frameSequenceStarted)-count(frameSequenceFinished)
attr title "frame sequence active, vector"
vector 95 mobilityDrones.drones[1].wlan[0].radio transmissionState:vector ETV
attr interpolationmode sample-hold
attr source transmissionStateChanged
attr title "Radio transmission state, vector"
vector 96 mobilityDrones.drones[1].wlan[0].mac.dcf packetSentToPeer:vector(packetBytes) ETV
attr interpolationmode none
attr title "packets sent, vector(packetBytes)"
vector 97 mobilityDrones.drones[1].wlan[0].mac.dcf packetSentToPeerMulticast:vector(packetBytes) ETV
attr interpolationmode none
attr source ieee80211Multicast(packetSentToPeer)
attr title "packets sent: multicast, vector(packetBytes)"
vector 98 mobilityDrones.drones[1].wlan[0].mac.dcf packetSentToPeerWithoutRetry:vector(packetBytes) ETV
attr interpolationmode none
attr source ieee80211NotRetry(packetSentToPeer)
attr title "packets sent: without retry, vector(packetBytes)"
vector 99 mobilityDrones.drones[1].wlan[0].mac.dcf.channelAccess.inProgressFrames queueingTime:vector ETV
attr interpolationmode none
attr source queueingTime(packetDequeued)
attr title "queueing times, vector"
vector 100 mobilityDrones.drones[2].wlan[0].mac packetDrop:vector(packetBytes) ETV
attr interpolationmode none
attr source packetDropped
attr title "packet drops, vector(packetBytes)"
vector 101 mobilityDrones.drones[2].wlan[0].mac packetDropIncorrectlyReceived:vector(packetBytes) ETV
attr interpolationmode none
attr source packetDropReasonIsIncorrectlyReceived(packetDropped)
attr title "packet drops: incorrectly received, vector(packetBytes)"
vector 102 mobilityDrones.drones[2].app[0] packetSent:vector(packetBytes) ETV
attr interpolationmode none
attr source packetSent
attr title "packets sent, vector(packetBytes)"
vector 103 mobilityDrones.drones[2].udp packetSent:vector(packetBytes) ETV
attr interpolationmode none
attr source packetSent
attr title "packets sent, vector(packetBytes)"
vector 104 mobilityDrones.drones[2].lo[0].lo rcvdPkFromHl:vector(packetBytes) ETV
attr interpolationmode none
attr source packetReceivedFromUpper
attr title "packets received from higher layer, vector(packetBytes)"
vector 105 mobilityDrones.drones[2].lo[0].lo passedUpPk:vector(packetBytes) ETV
attr interpolationmode none
attr source packetSentToUpper
attr title "packets passed to higher layer, vector(packetBytes)"
vector 106 mobilityDrones.drones[2].wlan[0].mac packetReceivedFromUpper:vector(packetBytes) ETV
attr interpolationmode none
attr title "packets received from upper layer, vector(packetBytes)"
vector 107 mobilityDrones.drones[2].wlan[0].mac.dcf.channelAccess.pendingQueue packetPushed:vector(packetBytes) ETV
attr interpolationmode none
attr title "packet pushed, vector(packetBytes)"
vector 108 mobilityDrones.drones[2].wlan[0].mac.dcf.channelAccess.pendingQueue queueLength:vector ETV
attr interpolationmode sample-hold
attr source "count(packetPushed) - count(packetPopped) - count(packetRemoved) - count(packetDropped)"
attr title "queue length, vector"
vector 109 mobilityDrones.drones[2].wlan[0].mac.dcf.channelAccess.contention backoffPeriodGenerated:vector ETV
attr interpolationmode none
attr title "backoff periods, vector"
vector 110 mobilityDrones.drones[2].wlan[0].mac.dcf.channelAccess.contention backoffActive:vector ETV
attr interpolationmode sample-hold
attr source count(backoffStarted)-count(backoffStopped)
attr title "backoff active, vector"
vector 111 mobilityDrones.drones[2].udp packetReceived:vector(packetBytes) ETV
attr interpolationmode none
attr source packetReceived
attr title "packets received, vector(packetBytes)"
vector 112 mobilityDrones.drones[2].udp passedUpPk:vector(count) ETV
attr interpolationmode none
attr source packetSentToUpper
attr title "packets passed up, vector(count)"
vector 113 mobilityDrones.drones[2].wlan[0].mac.dcf.channelAccess.pendingQueue packetPopped:vector(packetBytes) ETV
attr interpolationmode none
attr title "packet popped, vector(packetBytes)"
vector 114 mobilityDrones.drones[2].wlan[0].mac.dcf.channelAccess.pendingQueue queueingTime:vector ETV
attr interpolationmode none
attr source queueingTime(packetPopped)
attr title "queueing times, vector"
attr unit s
vector 115 mobilityDrones.drones[2].wlan[0].mac.dcf.channelAccess.inProgressFrames queueLength:vector ETV
attr interpolationmode sample-hold
attr source "count(packetEnqueued) - count(packetDequeued)"
attr title "queue length, vector"
vector 116 mobilityDrones.drones[2].wlan[0].mac.dcf datarateSelected:vector ETV
attr interpolationmode none
attr title "datarates selected, vector"
vector 117 mobilityDrones.drones[2].wlan[0].mac packetSentToLower:vector(packetBytes) ETV
attr interpolationmode none
attr title "packets sent to lower layer, vector(packetBytes)"
vector 118 mobilityDrones.drones[2].wlan[0].mac.dcf frameSequenceActive:vector ETV
attr interpolationmode sample-hold
attr source count(frameSequenceStarted)-count(frameSequenceFinished)
attr title "frame sequence active, vector"
vector 119 mobilityDrones.drones[2].wlan[0].radio transmissionState:vector ETV
attr interpolationmode sample-hold
attr source transmissionStateChanged
attr title "Radio transmission state, vector"
vector 120 mobilityDrones.drones[2].wlan[0].mac.dcf packetSentToPeer:vector(packetBytes) ETV
attr interpolationmode none
attr title "packets sent, vector(packetBytes)"
vector 121 mobilityDrones.drones[2].wlan[0].mac.dcf packetSentToPeerMulticast:vector(packetBytes) ETV
attr interpolationmode none
attr source ieee80211Multicast(packetSentToPeer)
attr title "packets sent: multicast, vector(packetBytes)"
vector 122 mobilityDrones.drones[2].wlan[0].mac.dcf packetSentToPeerWithoutRetry:vector(packetBytes) ETV
attr interpolationmode none
attr source ieee80211NotRetry(packetSentToPeer)
attr title "packets sent: without retry, vector(packetBytes)"
vector 123 mobilityDrones.drones[2].wlan[0].mac.dcf.channelAccess.inProgressFrames queueingTime:vector ETV
attr interpolationmode none
attr source queueingTime(packetDequeued)
attr title "queueing times, vector"
vector 124 mobilityDrones.drones[0].wlan[0].mac packetReceivedFromLower:vector(packetBytes) ETV
attr interpolationmode none
attr title "packets received from lower layer, vector(packetBytes)"
vector 125 mobilityDrones.drones[0].wlan[0].mac packetDrop:vector(packetBytes) ETV
attr interpolationmode none
attr source packetDropped
attr title "packet drops, vector(packetBytes)"
vector 126 mobilityDrones.drones[0].wlan[0].mac packetDropIncorrectlyReceived:vector(packetBytes) ETV
attr interpolationmode none
attr source packetDropReasonIsIncorrectlyReceived(packetDropped)
attr title "packet drops: incorrectly received, vector(packetBytes)"
vector 127 mobilityDrones.sensor1.wlan[0].mac packetReceivedFromLower:vector(packetBytes) ETV
attr interpolationmode none
attr title "packets received from lower layer, vector(packetBytes)"
vector 128 mobilityDrones.sensor1.wlan[0].mac.dcf packetReceivedFromPeer:vector(packetBytes) ETV
attr interpolationmode none
attr title "packets received, vector(packetBytes)"
vector 129 mobilityDrones.sensor1.wlan[0].mac.dcf packetReceivedFromPeerMulticast:vector(packetBytes) ETV
attr interpolationmode none
attr source ieee80211Multicast(packetReceivedFromPeer)
attr title "packets received: multicast, vector(packetBytes)"
vector 130 mobilityDrones.sensor1.wlan[0].mac.dcf packetReceivedFromPeerWithoutRetry:vector(packetBytes) ETV
attr interpolationmode none
attr source ieee80211NotRetry(packetReceivedFromPeer)
attr title "packets received: without retry, vector(packetBytes)"
vector 131 mobilityDrones.sensor1.wlan[0].mac packetSentToUpper:vector(packetBytes) ETV
attr interpolationmode none
attr title "packets sent to upper layer, vector(packetBytes)"
vector 132 mobilityDrones.drones[0].wlan[0].mac.dcf packetReceivedFromPeer:vector(packetBytes) ETV
attr interpolationmode none
attr title "packets received, vector(packetBytes)"
vector 133 mobilityDrones.drones[0].wlan[0].mac.dcf packetReceivedFromPeerMulticast:vector(packetBytes) ETV
attr interpolationmode none
attr source ieee80211Multicast(packetReceivedFromPeer)
attr title "packets received: multicast, vector(packetBytes)"
vector 134 mobilityDrones.drones[0].wlan[0].mac.dcf packetReceivedFromPeerBroadcast:vector(packetBytes) ETV
attr interpolationmode none
attr source ieee80211Broadcast(packetReceivedFromPeer)
attr title "packets received: broadcast, vector(packetBytes)"
vector 135 mobilityDrones.drones[0].wlan[0].mac.dcf packetReceivedFromPeerWithoutRetry:vector(packetBytes) ETV
attr interpolationmode none
attr source ieee80211NotRetry(packetReceivedFromPeer)
attr title "packets received: without retry, vector(packetBytes)"
vector 136 mobilityDrones.drones[0].wlan[0].mac packetSentToUpper:vector(packetBytes) ETV
attr interpolationmode none
attr title "packets sent to upper layer, vector(packetBytes)"
vector 137 mobilityDrones.drones[3].app[0] packetSent:vector(packetBytes) ETV
attr interpolationmode none
attr source packetSent
attr title "packets sent, vector(packetBytes)"
vector 138 mobilityDrones.drones[3].udp packetSent:vector(packetBytes) ETV
attr interpolationmode none
attr source packetSent
attr title "packets sent, vector(packetBytes)"
vector 139 mobilityDrones.drones[3].lo[0].lo rcvdPkFromHl:vector(packetBytes) ETV
attr interpolationmode none
attr source packetReceivedFromUpper
attr title "packets received from higher layer, vector(packetBytes)"
vector 140 mobilityDrones.drones[3].lo[0].lo passedUpPk:vector(packetBytes) ETV
attr interpolationmode none
attr source packetSentToUpper
attr title "packets passed to higher layer, vector(packetBytes)"
vector 141 mobilityDrones.drones[3].wlan[0].mac packetReceivedFromUpper:vector(packetBytes) ETV
attr interpolationmode none
attr title "packets received from upper layer, vector(packetBytes)"
vector 142 mobilityDrones.drones[3].wlan[0].mac.dcf.channelAccess.pendingQueue packetPushed:vector(packetBytes) ETV
attr interpolationmode none
attr title "packet pushed, vector(packetBytes)"
vector 143 mobilityDrones.drones[3].wlan[0].mac.dcf.channelAccess.pendingQueue queueLength:vector ETV
attr interpolationmode sample-hold
attr source "count(packetPushed) - count(packetPopped) - count(packetRemoved) - count(packetDropped)"
attr title "queue length, vector"
vector 144 mobilityDrones.drones[3].wlan[0].mac.dcf.channelAccess.contention backoffPeriodGenerated:vector ETV
attr interpolationmode none
attr title "backoff periods, vector"
vector 145 mobilityDrones.drones[3].wlan[0].mac.dcf.channelAccess.contention backoffActive:vector ETV
attr interpolationmode sample-hold
attr source count(backoffStarted)-count(backoffStopped)
attr title "backoff active, vector"
vector 146 mobilityDrones.drones[3].udp packetReceived:vector(packetBytes) ETV
attr interpolationmode none
attr source packetReceived
attr title "packets received, vector(packetBytes)"
vector 147 mobilityDrones.drones[3].udp passedUpPk:vector(count) ETV
attr interpolationmode none
attr source packetSentToUpper
attr title "packets passed up, vector(count)"
vector 148 mobilityDrones.drones[3].wlan[0].mac.dcf.channelAccess.pendingQueue packetPopped:vector(packetBytes) ETV
attr interpolationmode none
attr title "packet popped, vector(packetBytes)"
vector 149 mobilityDrones.drones[3].wlan[0].mac.dcf.channelAccess.pendingQueue queueingTime:vector ETV
attr interpolationmode none
attr source queueingTime(packetPopped)
attr title "queueing times, vector"
attr unit s
vector 150 mobilityDrones.drones[3].wlan[0].mac.dcf.channelAccess.inProgressFrames queueLength:vector ETV
attr interpolationmode sample-hold
attr source "count(packetEnqueued) - count(packetDequeued)"
attr title "queue length, vector"
vector 151 mobilityDrones.drones[3].wlan[0].mac.dcf datarateSelected:vector ETV
attr interpolationmode none
attr title "datarates selected, vector"
vector 152 mobilityDrones.drones[3].wlan[0].mac packetSentToLower:vector(packetBytes) ETV
attr interpolationmode none
attr title "packets sent to lower layer, vector(packetBytes)"
vector 153 mobilityDrones.drones[3].wlan[0].mac.dcf frameSequenceActive:vector ETV
attr interpolationmode sample-hold
attr source count(frameSequenceStarted)-count(frameSequenceFinished)
attr title "frame sequence active, vector"
vector 154 mobilityDrones.drones[3].wlan[0].radio transmissionState:vector ETV
attr interpolationmode sample-hold
attr source transmissionStateChanged
attr title "Radio transmission state, vector"
vector 155 mobilityDrones.drones[3].wlan[0].mac.dcf packetSentToPeer:vector(packetBytes) ETV
attr interpolationmode none
attr title "packets sent, vector(packetBytes)"
vector 156 mobilityDrones.drones[3].wlan[0].mac.dcf packetSentToPeerMulticast:vector(packetBytes) ETV
attr interpolationmode none
attr source ieee80211Multicast(packetSentToPeer)
attr title "packets sent: multicast, vector(packetBytes)"
vector 157 mobilityDrones.drones[3].wlan[0].mac.dcf packetSentToPeerWithoutRetry:vector(packetBytes) ETV
attr interpolationmode none
attr source ieee80211NotRetry(packetSentToPeer)
attr title "packets sent: without retry, vector(packetBytes)"
vector 158 mobilityDrones.drones[3].wlan[0].mac.dcf.channelAccess.inProgressFrames queueingTime:vector ETV
attr interpolationmode none
attr source queueingTime(packetDequeued)
attr title "queueing times, vector"
vector 159 mobilityDrones.sensor1.wlan[0].mac packetDrop:vector(packetBytes) ETV
attr interpolationmode none
attr source packetDropped
attr title "packet drops, vector(packetBytes)"
vector 160 mobilityDrones.sensor1.wlan[0].mac packetDropIncorrectlyReceived:vector(packetBytes) ETV
attr interpolationmode none
attr source packetDropReasonIsIncorrectlyReceived(packetDropped)
attr title "packet drops: incorrectly received, vector(packetBytes)"
vector 161 mobilityDrones.drones[1].wlan[0].mac.dcf packetReceivedFromPeerBroadcast:vector(packetBytes) ETV
attr interpolationmode none
attr source ieee80211Broadcast(packetReceivedFromPeer)
attr title "packets received: broadcast, vector(packetBytes)"
vector 162 mobilityDrones.drones[1].app[0] packetReceived:vector(packetBytes) ETV
attr interpolationmode none
attr source packetReceived
attr title "packets received, vector(packetBytes)"
vector 163 mobilityDrones.drones[1].app[0] throughput:vector ETV
attr source throughput(packetReceived)
attr title "throughput, vector"
attr unit bps
vector 164 mobilityDrones.drones[1].app[0] rcvdPkLifetime:vector ETV
attr interpolationmode none
attr source dataAge(packetReceived)
attr title "received packet lifetime, vector"
attr unit s
vector 165 mobilityDrones.drones[1].ipv4.arp arpRequestSent:vector(packetBytes) ETV
attr source arpRequestSent
attr title "ARP request sent, vector(packetBytes)"
vector 166 mobilityDrones.drones[1].wlan[0].mac.dcf packetSentToPeerBroadcast:vector(packetBytes) ETV
attr interpolationmode none
attr source ieee80211Broadcast(packetSentToPeer)
attr title "packets sent: broadcast , vector(packetBytes)"
vector 167 mobilityDrones.sensor1.wlan[0].mac.dcf packetReceivedFromPeerBroadcast:vector(packetBytes) ETV
attr interpolationmode none
attr source ieee80211Broadcast(packetReceivedFromPeer)
attr title "packets received: broadcast, vector(packetBytes)"
vector 168 mobilityDrones.drones[0].ipv4.arp arpReplySent:vector(packetBytes) ETV
attr source arpReplySent
attr title "ARP replies sent, vector(packetBytes)"
vector 169 mobilityDrones.drones[0].wlan[0].mac.dcf packetSentToPeerUnicast:vector(packetBytes) ETV
attr interpolationmode none
attr source ieee80211Unicast(packetSentToPeer)
attr title "packets sent: unicast, vector(packetBytes)"
vector 170 mobilityDrones.drones[0].wlan[0].mac.rx nav:vector ETV
attr interpolationmode linear
attr source navChanged
attr title "network allocation vector, vector"
vector 171 mobilityDrones.sensor1.wlan[0].mac.rx nav:vector ETV
attr interpolationmode linear
attr source navChanged
attr title "network allocation vector, vector"
vector 172 mobilityDrones.sensor1.wlan[0].mac.dcf packetDrop:vector(packetBytes) ETV
attr interpolationmode none
attr source packetDropped
attr title "packet drops, vector(packetBytes)"
vector 173 mobilityDrones.sensor1.wlan[0].mac.dcf packetDropNotAddressedToUs:vector(packetBytes) ETV
attr interpolationmode none
attr source packetDropReasonIsNotAddressedToUs(packetDropped)
attr title "packet drops: not addressed to us, vector(packetBytes)"
vector 174 mobilityDrones.sensor1.wlan[0].mac packetDropNotAddressedToUs:vector(packetBytes) ETV
attr interpolationmode none
attr source packetDropReasonIsNotAddressedToUs(packetDropped)
attr title "packet drops: not addressed to us, vector(packetBytes)"
vector 175 mobilityDrones.drones[1].wlan[0].mac.dcf packetReceivedFromPeerUnicast:vector(packetBytes) ETV
attr interpolationmode none
attr source ieee80211Unicast(packetReceivedFromPeer)
attr title "packets received: unicast, vector(packetBytes)"
vector 176 mobilityDrones.drones[1].wlan[0].mac.dcf packetSentToPeerUnicast:vector(packetBytes) ETV
attr interpolationmode none
attr source ieee80211Unicast(packetSentToPeer)
attr title "packets sent: unicast, vector(packetBytes)"
vector 177 mobilityDrones.drones[0].wlan[0].mac.dcf packetReceivedFromPeerUnicast:vector(packetBytes) ETV
attr interpolationmode none
attr source ieee80211Unicast(packetReceivedFromPeer)
attr title "packets received: unicast, vector(packetBytes)"
vector 178 mobilityDrones.drones[1].wlan[0].mac.rx nav:vector ETV
attr interpolationmode linear
attr source navChanged
attr title "network allocation vector, vector"
vector 179 mobilityDrones.drones[0].app[0] packetReceived:vector(packetBytes) ETV
attr interpolationmode none
attr source packetReceived
attr title "packets received, vector(packetBytes)"
vector 180 mobilityDrones.drones[0].app[0] throughput:vector ETV
attr source throughput(packetReceived)
attr title "throughput, vector"
attr unit bps
vector 181 mobilityDrones.drones[0].app[0] rcvdPkLifetime:vector ETV
attr interpolationmode none
attr source dataAge(packetReceived)
attr title "received packet lifetime, vector"
attr unit s
vector 182 mobilityDrones.drones[1].wlan[0].mac.dcf packetSentToPeerWithRetry:vector(packetBytes) ETV
attr interpolationmode none
attr source ieee80211Retry(packetSentToPeer)
attr title "packets sent: with retry, vector(packetBytes)"
vector 183 mobilityDrones.drones[0].wlan[0].mac.dcf packetReceivedFromPeerWithRetry:vector(packetBytes) ETV
attr interpolationmode none
attr source ieee80211Retry(packetReceivedFromPeer)
attr title "packets received: with retry, vector(packetBytes)"
vector 184 mobilityDrones.drones[0].wlan[0].mac.dcf packetSentToPeerWithRetry:vector(packetBytes) ETV
attr interpolationmode none
attr source ieee80211Retry(packetSentToPeer)
attr title "packets sent: with retry, vector(packetBytes)"
vector 185 mobilityDrones.drones[0].wlan[0].mac.dcf packetDrop:vector(packetBytes) ETV
attr interpolationmode none
attr source packetDropped
attr title "packet drops, vector(packetBytes)"
vector 186 mobilityDrones.drones[0].wlan[0].mac.dcf packetDropRetryLimitReached:vector(packetBytes) ETV
attr interpolationmode none
attr source packetDropReasonIsRetryLimitReached(packetDropped)
attr title "packet drops: retry limit reached, vector(packetBytes)"
vector 187 mobilityDrones.drones[0].wlan[0].mac packetDropRetryLimitReached:vector(packetBytes) ETV
attr interpolationmode none
attr source packetDropReasonIsRetryLimitReached(packetDropped)
attr title "packet drops: retry limit reached, vector(packetBytes)"
vector 188 mobilityDrones.drones[1].wlan[0].mac.dcf packetDrop:vector(packetBytes) ETV
attr interpolationmode none
attr source packetDropped
attr title "packet drops, vector(packetBytes)"
vector 189 mobilityDrones.drones[1].wlan[0].mac.dcf packetDropRetryLimitReached:vector(packetBytes) ETV
attr interpolationmode none
attr source packetDropReasonIsRetryLimitReached(packetDropped)
attr title "packet drops: retry limit reached, vector(packetBytes)"
vector 190 mobilityDrones.drones[1].wlan[0].mac packetDrop:vector(packetBytes) ETV
attr interpolationmode none
attr source packetDropped
attr title "packet drops, vector(packetBytes)"
vector 191 mobilityDrones.drones[1].wlan[0].mac packetDropRetryLimitReached:vector(packetBytes) ETV
attr interpolationmode none
attr source packetDropReasonIsRetryLimitReached(packetDropped)
attr title "packet drops: retry limit reached, vector(packetBytes)"
vector 192 mobilityDrones.drones[2].app[0] packetReceived:vector(packetBytes) ETV
attr interpolationmode none
attr source packetReceived
attr title "packets received, vector(packetBytes)"
vector 193 mobilityDrones.drones[2].app[0] throughput:vector ETV
attr source throughput(packetReceived)
attr title "throughput, vector"
attr unit bps
vector 194 mobilityDrones.drones[2].app[0] rcvdPkLifetime:vector ETV
attr interpolationmode none
attr source dataAge(packetReceived)
attr title "received packet lifetime, vector"
attr unit s
vector 195 mobilityDrones.drones[2].ipv4.arp arpRequestSent:vector(packetBytes) ETV
attr source arpRequestSent
attr title "ARP request sent, vector(packetBytes)"
vector 196 mobilityDrones.drones[2].wlan[0].mac.dcf packetSentToPeerBroadcast:vector(packetBytes) ETV
attr interpolationmode none
attr source ieee80211Broadcast(packetSentToPeer)
attr title "packets sent: broadcast , vector(packetBytes)"
vector 197 mobilityDrones.drones[1].ipv4.arp arpReplySent:vector(packetBytes) ETV
attr source arpReplySent
attr title "ARP replies sent, vector(packetBytes)"
vector 198 mobilityDrones.drones[2].wlan[0].mac.dcf packetReceivedFromPeerUnicast:vector(packetBytes) ETV
attr interpolationmode none
attr source ieee80211Unicast(packetReceivedFromPeer)
attr title "packets received: unicast, vector(packetBytes)"
vector 199 mobilityDrones.drones[2].wlan[0].mac.dcf packetSentToPeerUnicast:vector(packetBytes) ETV
attr interpolationmode none
attr source ieee80211Unicast(packetSentToPeer)
attr title "packets sent: unicast, vector(packetBytes)"
vector 200 mobilityDrones.drones[2].wlan[0].mac.rx nav:vector ETV
attr interpolationmode linear
attr source navChanged
attr title "network allocation vector, vector"
vector 201 mobilityDrones.drones[1].wlan[0].mac packetDropIncorrectlyReceived:vector(packetBytes) ETV
attr interpolationmode none
attr source packetDropReasonIsIncorrectlyReceived(packetDropped)
attr title "packet drops: incorrectly received, vector(packetBytes)"
vector 202 mobilityDrones.drones[2].wlan[0].mac.dcf packetReceivedFromPeerWithRetry:vector(packetBytes) ETV
attr interpolationmode none
attr source ieee80211Retry(packetReceivedFromPeer)
attr title "packets received: with retry, vector(packetBytes)"
vector 203 mobilityDrones.drones[2].wlan[0].mac.dcf.recipientMacDataService packetDropDuplicateDetected:vector(packetBytes) ETV
attr interpolationmode none
attr source packetDropReasonIsDuplicateDetected(packetDropped)
attr title "packet drops: duplicate detected, vector(packetBytes)"
vector 204 mobilityDrones.drones[2].wlan[0].mac.dcf packetDrop:vector(packetBytes) ETV
attr interpolationmode none
attr source packetDropped
attr title "packet drops, vector(packetBytes)"
vector 205 mobilityDrones.drones[2].wlan[0].mac packetDropDuplicateDetected:vector(packetBytes) ETV
attr interpolationmode none
attr source packetDropReasonIsDuplicateDetected(packetDropped)
attr title "packet drops: duplicate detected, vector(packetBytes)"
vector 206 mobilityDrones.drones[2].wlan[0].mac.dcf packetSentToPeerWithRetry:vector(packetBytes) ETV
attr interpolationmode none
attr source ieee80211Retry(packetSentToPeer)
attr title "packets sent: with retry, vector(packetBytes)"
vector 207 mobilityDrones.drones[2].wlan[0].mac.dcf packetDropRetryLimitReached:vector(packetBytes) ETV
attr interpolationmode none
attr source packetDropReasonIsRetryLimitReached(packetDropped)
attr title "packet drops: retry limit reached, vector(packetBytes)"
vector 208 mobilityDrones.drones[2].wlan[0].mac packetDropRetryLimitReached:vector(packetBytes) ETV
attr interpolationmode none
attr source packetDropReasonIsRetryLimitReached(packetDropped)
attr title "packet drops: retry limit reached, vector(packetBytes)"
vector 209 mobilityDrones.drones[3].wlan[0].mac.dcf packetReceivedFromPeerBroadcast:vector(packetBytes) ETV
attr interpolationmode none
attr source ieee80211Broadcast(packetReceivedFromPeer)
attr title "packets received: broadcast, vector(packetBytes)"
vector 210 mobilityDrones.drones[3].ipv4.arp arpReplySent:vector(packetBytes) ETV
attr source arpReplySent
attr title "ARP replies sent, vector(packetBytes)"
vector 211 mobilityDrones.drones[3].wlan[0].mac.dcf packetSentToPeerUnicast:vector(packetBytes) ETV
attr interpolationmode none
attr source ieee80211Unicast(packetSentToPeer)
attr title "packets sent: unicast, vector(packetBytes)"
vector 212 mobilityDrones.drones[3].wlan[0].mac.rx nav:vector ETV
attr interpolationmode linear
attr source navChanged
attr title "network allocation vector, vector"
vector 213 mobilityDrones.drones[3].wlan[0].mac.dcf packetReceivedFromPeerUnicast:vector(packetBytes) ETV
attr interpolationmode none
attr source ieee80211Unicast(packetReceivedFromPeer)
attr title "packets received: unicast, vector(packetBytes)"
vector 214 mobilityDrones.drones[3].app[0] packetReceived:vector(packetBytes) ETV
attr interpolationmode none
attr source packetReceived
attr title "packets received, vector(packetBytes)"
vector 215 mobilityDrones.drones[3].app[0] throughput:vector ETV
attr source throughput(packetReceived)
attr title "throughput, vector"
attr unit bps
vector 216 mobilityDrones.drones[3].app[0] rcvdPkLifetime:vector ETV
attr interpolationmode none
attr source dataAge(packetReceived)
attr title "received packet lifetime, vector"
attr unit s
vector 217 mobilityDrones.drones[3].wlan[0].mac packetDrop:vector(packetBytes) ETV
attr interpolationmode none
attr source packetDropped
attr title "packet drops, vector(packetBytes)"
vector 218 mobilityDrones.drones[3].wlan[0].mac packetDropIncorrectlyReceived:vector(packetBytes) ETV
attr interpolationmode none
attr source packetDropReasonIsIncorrectlyReceived(packetDropped)
attr title "packet drops: incorrectly received, vector(packetBytes)"
vector 219 mobilityDrones.drones[3].wlan[0].mac.dcf packetSentToPeerWithRetry:vector(packetBytes) ETV
attr interpolationmode none
attr source ieee80211Retry(packetSentToPeer)
attr title "packets sent: with retry, vector(packetBytes)"
vector 220 mobilityDrones.drones[3].wlan[0].mac.dcf packetDrop:vector(packetBytes) ETV
attr interpolationmode none
attr source packetDropped
attr title "packet drops, vector(packetBytes)"
vector 221 mobilityDrones.drones[3].wlan[0].mac.dcf packetDropRetryLimitReached:vector(packetBytes) ETV
attr interpolationmode none
attr source packetDropReasonIsRetryLimitReached(packetDropped)
attr title "packet drops: retry limit reached, vector(packetBytes)"
vector 222 mobilityDrones.drones[3].wlan[0].mac packetDropRetryLimitReached:vector(packetBytes) ETV
attr interpolationmode none
attr source packetDropReasonIsRetryLimitReached(packetDropped)
attr title "packet drops: retry limit reached, vector(packetBytes)"
vector 223 mobilityDrones.sensor1.wlan[0].mac.dcf packetReceivedFromPeerUnicast:vector(packetBytes) ETV
attr interpolationmode none
attr source ieee80211Unicast(packetReceivedFromPeer)
attr title "packets received: unicast, vector(packetBytes)"
vector 224 mobilityDrones.drones[0].wlan[0].mac.dcf packetDropNotAddressedToUs:vector(packetBytes) ETV
attr interpolationmode none
attr source packetDropReasonIsNotAddressedToUs(packetDropped)
attr title "packet drops: not addressed to us, vector(packetBytes)"
vector 225 mobilityDrones.drones[0].wlan[0].mac packetDropNotAddressedToUs:vector(packetBytes) ETV
attr interpolationmode none
attr source packetDropReasonIsNotAddressedToUs(packetDropped)
attr title "packet drops: not addressed to us, vector(packetBytes)"
vector 226 mobilityDrones.sensor1.wlan[0].mac.dcf packetSentToPeerUnicast:vector(packetBytes) ETV
attr interpolationmode none
attr source ieee80211Unicast(packetSentToPeer)
attr title "packets sent: unicast, vector(packetBytes)"
vector 227 mobilityDrones.sensor1.wlan[0].mac.dcf packetSentToPeerWithRetry:vector(packetBytes) ETV
attr interpolationmode none
attr source ieee80211Retry(packetSentToPeer)
attr title "packets sent: with retry, vector(packetBytes)"
vector 228 mobilityDrones.sensor1.wlan[0].mac.dcf packetDropRetryLimitReached:vector(packetBytes) ETV
attr interpolationmode none
attr source packetDropReasonIsRetryLimitReached(packetDropped)
attr title "packet drops: retry limit reached, vector(packetBytes)"
vector 229 mobilityDrones.sensor1.wlan[0].mac packetDropRetryLimitReached:vector(packetBytes) ETV
attr interpolationmode none
attr source packetDropReasonIsRetryLimitReached(packetDropped)
attr title "packet drops: retry limit reached, vector(packetBytes)"
vector 230 mobilityDrones.drones[3].wlan[0].mac.dcf packetDropNotAddressedToUs:vector(packetBytes) ETV
attr interpolationmode none
attr source packetDropReasonIsNotAddressedToUs(packetDropped)
attr title "packet drops: not addressed to us, vector(packetBytes)"
vector 231 mobilityDrones.drones[3].wlan[0].mac packetDropNotAddressedToUs:vector(packetBytes) ETV
attr interpolationmode none
attr source packetDropReasonIsNotAddressedToUs(packetDropped)
attr title "packet drops: not addressed to us, vector(packetBytes)"
vector 232 mobilityDrones.drones[1].wlan[0].mac.dcf packetReceivedFromPeerWithRetry:vector(packetBytes) ETV
attr interpolationmode none
attr source ieee80211Retry(packetReceivedFromPeer)
attr title "packets received: with retry, vector(packetBytes)"
vector 233 mobilityDrones.drones[2].wlan[0].mac.dcf packetDropNotAddressedToUs:vector(packetBytes) ETV
attr interpolationmode none
attr source packetDropReasonIsNotAddressedToUs(packetDropped)
attr title "packet drops: not addressed to us, vector(packetBytes)"
vector 234 mobilityDrones.drones[2].wlan[0].mac packetDropNotAddressedToUs:vector(packetBytes) ETV
attr interpolationmode none
attr source packetDropReasonIsNotAddressedToUs(packetDropped)
attr title "packet drops: not addressed to us, vector(packetBytes)"
vector 235 mobilityDrones.drones[1].wlan[0].mac.dcf packetDropNotAddressedToUs:vector(packetBytes) ETV
attr interpolationmode none
attr source packetDropReasonIsNotAddressedToUs(packetDropped)
attr title "packet drops: not addressed to us, vector(packetBytes)"
vector 236 mobilityDrones.drones[1].wlan[0].mac packetDropNotAddressedToUs:vector(packetBytes) ETV
attr interpolationmode none
attr source packetDropReasonIsNotAddressedToUs(packetDropped)
attr title "packet drops: not addressed to us, vector(packetBytes)"
vector 237 mobilityDrones.drones[0].ipv4.arp arpRequestSent:vector(packetBytes) ETV
attr source arpRequestSent
attr title "ARP request sent, vector(packetBytes)"
vector 238 mobilityDrones.drones[0].wlan[0].mac.dcf packetSentToPeerBroadcast:vector(packetBytes) ETV
attr interpolationmode none
attr source ieee80211Broadcast(packetSentToPeer)
attr title "packets sent: broadcast , vector(packetBytes)"
vector 239 mobilityDrones.drones[2].ipv4.ip packetDropAddressResolutionFailed:vector(packetBytes) ETV
attr interpolationmode none
attr source packetDropReasonIsAddressResolutionFailed(packetDropped)
attr title "packet drop: address resolution failed, vector(packetBytes)"
vector 240 mobilityDrones.drones[1].ipv4.ip packetDropAddressResolutionFailed:vector(packetBytes) ETV
attr interpolationmode none
attr source packetDropReasonIsAddressResolutionFailed(packetDropped)
attr title "packet drop: address resolution failed, vector(packetBytes)"
vector 241 mobilityDrones.drones[3].wlan[0].mac.dcf packetReceivedFromPeerWithRetry:vector(packetBytes) ETV
attr interpolationmode none
attr source ieee80211Retry(packetReceivedFromPeer)
attr title "packets received: with retry, vector(packetBytes)"
0	0	0	0
0	0	0	0
0	0	0	2
0	66	0.00019	3
0	76	0.000244	2
0	113	1	3
0	120	1.000054	2
0	177	2	3
0	184	2.000054	2
0	238	3	3
0	245	3.000054	2
0	299	4	3
0	306	4.000054	2
0	344	5	3
0	351	5.000054	2
0	388	6	3
0	395	6.000054	2
0	451	7	3
0	458	7.000054	2
0	512	8	3
0	519	8.000054	2
0	573	9	3
0	580	9.000054	2
0	617	10	3
0	624	10.000054	2
0	660	11	3
0	667	11.000054	2
0	723	12	3
0	730	12.000054	2
0	784	13	3
0	791	13.000054	2
0	845	14	3
0	852	14.000054	2
0	889	15	3
0	896	15.000054	2
0	932	16	3
0	939	16.000054	2
0	995	17	3
0	1002	17.000054	2
0	1047	18	3
0	1054	18.000054	2
0	1099	19	3
0	1106	19.000054	2
0	1134	20	3
0	1141	20.000054	2
0	1168	21	3
0	1175	21.000054	2
0	1222	22	3
0	1229	22.000054	2
0	1274	23	3
0	1281	23.000054	2
0	1326	24	3
0	1333	24.000054	2
0	1361	25	3
0	1368	25.000054	2
0	1395	26	3
0	1402	26.000054	2
0	1449	27	3
0	1456	27.000054	2
0	1502	28	3
0	1509	28.000054	2
0	1554	29	3
0	1561	29.000054	2
0	1589	30	3
0	1596	30.000054	2
0	1623	31	3
0	1630	31.000054	2
0	1677	32	3
0	1684	32.000054	2
0	1729	33	3
0	1736	33.000054	2
0	1781	34	3
0	1788	34.000054	2
0	1816	35	3
0	1823	35.000054	2
0	1850	36	3
0	1857	36.000054	2
0	1904	37	3
0	1911	37.000054	2
0	1956	38	3
0	1963	38.000054	2
0	2008	39	3
0	2015	39.000054	2
0	2075	40	3
0	2083	40.000054	2
0	2140	41	3
0	2147	41.000054	2
0	2224	42	3
0	2231	42.000054	2
0	2307	43	3
0	2314	43.000054	2
0	2389	44	3
0	2396	44.000054	2
0	2454	45	3
0	2462	45.000054	2
0	2520	46	3
0	2527	46.000054	2
0	2604	47	3
0	2611	47.000054	2
0	2686	48	3
0	2693	48.000054	2
0	2768	49	3
0	2775	49.000054	2
0	2833	50	3
0	2840	50.000054	2
0	2897	51	3
0	2904	51.000054	2
0	2981	52	3
0	2988	52.000054	2
0	3063	53	3
0	3070	53.000054	2
0	3145	54	3
0	3152	54.000054	2
0	3210	55	3
0	3217	55.000054	2
0	3274	56	3
0	3281	56.000054	2
0	3356	57	3
0	3363	57.000054	2
0	3432	58	3
0	3439	58.000054	2
0	3508	59	3
0	3515	59.000054	2
0	3567	60	3
0	3574	60.000054	2
0	3625	61	3
0	3632	61.000054	2
0	3703	62	3
0	3710	62.000054	2
0	3779	63	3
0	3786	63.000054	2
0	3855	64	3
0	3862	64.000054	2
0	3914	65	3
0	3921	65.000054	2
0	3972	66	3
0	3979	66.000054	2
0	4051	67	3
0	4058	67.000054	2
0	4128	68	3
0	4135	68.000054	2
0	4204	69	3
0	4211	69.000054	2
0	4263	70	3
0	4270	70.000054	2
0	4321	71	3
0	4328	71.000054	2
0	4399	72	3
0	4406	72.000054	2
0	4475	73	3
0	4482	73.000054	2
0	4551	74	3
0	4558	74.000054	2
0	4610	75	3
0	4617	75.000054	2
0	4668	76	3
0	4675	76.000054	2
0	4746	77	3
0	4753	77.000054	2
0	4822	78	3
0	4829	78.000054	2
0	4898	79	3
0	4905	79.000054	2
0	4957	80	3
0	4965	80.000054	2
0	5045	81	3
0	5052	81.000054	2
0	5150	82	3
0	5157	82.000054	2
0	5254	83	3
0	5261	83.000054	2
0	5358	84	3
0	5365	84.000054	2
0	5447	85	3
0	5455	85.000054	2
0	5537	86	3
0	5544	86.000054	2
0	5648	87	3
0	5655	87.000054	2
0	5757	88	3
0	5764	88.000054	2
0	5866	89	3
0	5873	89.000054	2
0	5955	90	3
0	5962	90.000054	2
0	6043	91	3
0	6050	91.000054	2
0	6154	92	3
0	6161	92.000054	2
0	6263	93	3
0	6270	93.000054	2
0	6372	94	3
0	6379	94.000054	2
0	6461	95	3
0	6468	95.000054	2
0	6550	96	3
0	6557	96.000054	2
0	6658	97	3
0	6665	97.000054	2
0	6764	98	3
0	6771	98.000054	2
0	6870	99	3
0	6877	99.000054	2
0	6956	100	3
0	6963	100.000054	2
0	7041	101	3
0	7048	101.000054	2
0	7149	102	3
0	7156	102.000054	2
0	7253	103	3
0	7260	103.000054	2
0	7353	104	3
0	7360	104.000054	2
0	7436	105	3
0	7443	105.000054	2
0	7518	106	3
0	7525	106.000054	2
0	7621	107	3
0	7628	107.000054	2
0	7722	108	3
0	7729	108.000054	2
0	7822	109	3
0	7829	109.000054	2
0	7931	110	3
0	7939	110.000054	2
0	8038	111	3
0	8045	111.000054	2
0	8164	112	3
0	8171	112.000054	2
0	8290	113	3
0	8297	113.000054	2
0	8415	114	3
0	8422	114.000054	2
0	8523	115	3
0	8531	115.000054	2
0	8630	116	3
0	8637	116.000054	2
0	8756	117	3
0	8763	117.000054	2
0	8880	118	3
0	8887	118.000054	2
0	9004	119	3
0	9011	119.000054	2
0	9111	120	3
0	9118	120.000054	2
0	9217	121	3
0	9224	121.000054	2
0	9343	122	3
0	9350	122.000054	2
0	9468	123	3
0	9475	123.000054	2
0	9597	124	3
0	9604	124.000054	2
0	9710	125	3
0	9717	125.000054	2
0	9826	126	3
0	9833	126.000054	2
0	9875	126.001004723862	3
0	9882	126.001054723862	2
0	9939	126.001273447651	3
0	9948	126.001307447651	2
0	9980	126.001422171421	3
0	9989	126.001456171421	2
0	10021	126.001790895168	3
0	10030	126.001824895168	2
0	10039	126.002234895168	3
0	10046	126.002288895168	2
0	10078	126.002723618853	3
0	10085	126.002777618853	2
0	10115	126.003232342496	3
0	10122	126.003286342496	2
0	10220	126.25106911087	3
0	10229	126.25110311087	2
0	10303	127	3
0	10310	127.000054	2
0	10449	127.256553161258	3
0	10458	127.256587161258	2
0	10533	128	3
0	10540	128.000054	2
0	10551	128.001268	3
0	10558	128.001322	2
0	10569	128.003196	3
0	10576	128.00325	2
0	10587	128.007884	3
0	10594	128.007938	2
0	10607	128.012212	3
0	10614	128.012266	2
0	10627	128.02172	3
0	10634	128.021774	2
0	10671	128.041108	3
0	10678	128.041162	2
0	10891	129	3
0	10898	129.000054	2
0	10909	129.000808	3
0	10916	129.000862	2
0	10927	129.002016	3
0	10934	129.00207	2
0	10945	129.005744	3
0	10952	129.005798	2
0	10967	129.015932	3
0	10974	129.015986	2
0	11009	129.02842	3
0	11016	129.028474	2
0	11029	129.042448	3
0	11036	129.042502	2
0	11211	130	3
0	11218	130.000054	2
0	11228	130.016348	3
0	11235	130.016402	2
0	11268	130.028036	3
0	11275	130.02809	2
0	11286	130.044264	3
0	11293	130.044318	2
0	11302	130.050892	3
0	11309	130.050946	2
0	11320	130.07056	3
0	11327	130.070614	2
0	11336	130.072948	3
0	11343	130.073002	2
0	11517	131	3
0	11524	131.000054	2
0	11534	131.018468	3
0	11541	131.018522	2
0	11573	131.027696	3
0	11580	131.02775	2
0	11591	131.036724	3
0	11598	131.036778	2
0	11609	131.048932	3
0	11616	131.048986	2
0	11626	131.06154	3
0	11633	131.061594	2
0	11642	131.070068	3
0	11649	131.070122	2
0	11747	132	3
0	11754	132.000054	2
0	11871	133	3
0	11878	133.000054	2
0	11995	134	3
0	12002	134.000054	2
0	12102	135	3
0	12109	135.000054	2
0	12208	136	3
0	12215	136.000054	2
0	12334	137	3
0	12341	137.000054	2
0	12459	138	3
0	12466	138.000054	2
0	12583	139	3
0	12590	139.000054	2
0	12693	140	3
0	12700	140.000054	2
0	12961	141	3
0	12968	141.000054	2
0	13237	142	3
0	13244	142.000054	2
0	13561	143	3
0	13568	143.000054	2
0	13885	144	3
0	13892	144.000054	2
0	14192	145	3
0	14199	145.000054	2
0	14398	146	3
0	14405	146.000054	2
0	14524	147	3
0	14531	147.000054	2
0	14924	148	3
0	14931	148.000054	2
0	15248	149	3
0	15255	149.000054	2
0	15555	150	3
0	15562	150.000054	2
0	15862	151	3
0	15869	151.000054	2
0	16194	152	3
0	16201	152.000054	2
0	16426	153	3
0	16433	153.000054	2
0	16643	154	3
0	16650	154.000054	2
0	16692	154.000328771271	3
0	16701	154.000362771271	2
0	16710	154.003952771271	3
0	16717	154.004006771271	2
0	16806	154.251069136344	3
0	16815	154.251103136344	2
0	16863	155	3
0	16870	155.000054	2
0	16881	155.000488	3
0	16888	155.000542	2
0	16899	155.000876	3
0	16906	155.00093	2
0	16917	155.001944	3
0	16924	155.001998	2
0	16935	155.007852	3
0	16942	155.007906	2
0	16954	155.0103	3
0	16961	155.010354	2
0	16977	155.023168	3
0	16984	155.023222	2
0	17191	156	3
0	17198	156.000054	2
0	17209	156.001048	3
0	17216	156.001102	2
0	17227	156.003376	3
0	17234	156.00343	2
0	17245	156.007104	3
0	17252	156.007158	2
0	17263	156.008672	3
0	17270	156.008726	2
0	17285	156.01748	3
0	17292	156.017534	2
0	17304	156.023328	3
0	17311	156.023382	2
0	17534	157	3
0	17541	157.000054	2
0	17553	157.019388	3
0	17560	157.019442	2
0	17595	157.035076	3
0	17602	157.03513	2
0	17615	157.052744	3
0	17622	157.052798	2
0	17634	157.070032	3
0	17641	157.070086	2
0	17653	157.08788	3
0	17660	157.087934	2
0	17671	157.089828	3
0	17678	157.089882	2
0	17875	158	3
0	17882	158.000054	2
0	17893	158.004488	3
0	17900	158.004542	2
0	17912	158.011516	3
0	17919	158.01157	2
0	17955	158.027424	3
0	17962	158.027478	2
0	17974	158.039252	3
0	17981	158.039306	2
0	17992	158.04758	3
0	17999	158.047634	2
0	18012	158.058748	3
0	18019	158.058802	2
0	18215	159	3
0	18222	159.000054	2
0	18232	159.014288	3
0	18239	159.014342	2
0	18272	159.032476	3
0	18279	159.03253	2
0	18290	159.049964	3
0	18297	159.050018	2
0	18306	159.058932	3
0	18314	159.058986	2
0	18325	159.0784	3
0	18332	159.078454	2
0	18342	159.096848	3
0	18349	159.096902	2
0	18428	160	3
0	18435	160.000054	2
0	18640	161	3
0	18647	161.000054	2
0	18904	162	3
0	18911	162.000054	2
0	19200	163	3
0	19207	163.000054	2
0	19519	164	3
0	19526	164.000054	2
0	19844	165	3
0	19851	165.000054	2
0	20142	166	3
0	20149	166.000054	2
0	20305	167	3
0	20312	167.000054	2
0	20469	168	3
0	20476	168.000054	2
0	20717	169	3
0	20724	169.000054	2
0	21030	170	3
0	21037	170.000054	2
0	21339	171	3
0	21346	171.000054	2
0	21489	172	3
0	21496	172.000054	2
0	21598	173	3
0	21605	173.000054	2
0	21707	174	3
0	21714	174.000054	2
0	21816	175	3
0	21823	175.000054	2
0	21863	175.013788791066	3
0	21872	175.013822791066	2
0	21880	175.017632791066	3
0	21887	175.017686791066	2
0	21973	175.251069135044	3
0	21982	175.251103135044	2
0	22029	176	3
0	22036	176.000054	2
0	22046	176.000888	3
0	22053	176.000942	2
0	22082	176.001356838207	3
0	22089	176.001410838207	2
0	22099	176.004844838207	3
0	22106	176.004898838207	2
0	22121	176.015152838207	3
0	22128	176.015206838207	2
0	22162	176.031120838207	3
0	22169	176.031174838207	2
0	22179	176.038948838207	3
0	22186	176.039002838207	2
0	22397	177	3
0	22404	177.000054	2
0	22413	177.000888	3
0	22420	177.000942	2
0	22429	177.001856	3
0	22436	177.00191	2
0	22445	177.004904	3
0	22452	177.004958	2
0	22464	177.014332	3
0	22471	177.014386	2
0	22505	177.03208	3
0	22512	177.032134	2
0	22521	177.034428	3
0	22528	177.034482	2
0	22738	178	3
0	22745	178.000054	2
0	22755	178.017148	3
0	22762	178.017202	2
0	22795	178.029276	3
0	22802	178.02933	2
0	22813	178.039624	3
0	22820	178.039678	2
0	22830	178.050052	3
0	22837	178.050106	2
0	22846	178.05548	3
0	22853	178.055534	2
0	22863	178.060948	3
0	22870	178.061002	2
0	23080	179	3
0	23087	179.000054	2
0	23097	179.020448	3
0	23104	179.020502	2
0	23113	179.023236	3
0	23120	179.02329	2
0	23155	179.042284	3
0	23162	179.042338	2
0	23172	179.054552	3
0	23179	179.054606	2
0	23188	179.06242	3
0	23195	179.062474	2
0	23206	179.079588	3
0	23213	179.079642	2
0	23419	180	3
0	23426	180.000054	2
0	23435	180.004668	3
0	23442	180.004722	2
0	23453	180.020396	3
0	23460	180.02045	2
0	23494	180.040424	3
0	23501	180.040478	2
0	23510	180.045332	3
0	23517	180.045386	2
0	23527	180.05354	3
0	23534	180.053594	2
0	23545	180.071288	3
0	23552	180.071342	2
0	23742	181	3
0	23749	181.000054	2
0	23930	182	3
0	23937	182.000054	2
0	24175	183	3
0	24182	183.000054	2
0	24495	184	3
0	24502	184.000054	2
0	24815	185	3
0	24822	185.000054	2
0	25035	186	3
0	25042	186.000054	2
0	25167	187	3
0	25174	187.000054	2
0	25214	187.013288803547	3
0	25223	187.013322803547	2
0	25233	187.023932803547	3
0	25240	187.023986803547	2
0	25324	187.251069140583	3
0	25333	187.251103140583	2
0	25401	188	3
0	25408	188.000054	2
0	25417	188.000788	3
0	25424	188.000842	2
0	25433	188.001396	3
0	25440	188.00145	2
0	25449	188.002904	3
0	25456	188.002958	2
0	25467	188.011352	3
0	25474	188.011406	2
0	25486	188.02474	3
0	25493	188.024794	2
0	25502	188.026168	3
0	25526	188.026222	2
0	25742	189	3
0	25749	189.000054	2
0	25758	189.000968	3
0	25765	189.001022	2
0	25774	189.002716	3
0	25781	189.00277	2
0	25790	189.004264	3
0	25797	189.004318	2
0	25806	189.004832	3
0	25813	189.004886	2
0	25827	189.01966	3
0	25834	189.019714	2
0	25867	189.033948	3
0	25874	189.034002	2
0	26063	190	3
0	26070	190.000054	2
0	26079	190.008268	3
0	26086	190.008322	2
0	26097	190.024076	3
0	26104	190.02413	2
0	26138	190.042444	3
0	26145	190.042498	2
0	26154	190.049132	3
0	26161	190.049186	2
0	26171	190.05494	3
0	26178	190.054994	2
0	26188	190.059408	3
0	26195	190.059462	2
0	26383	191	3
0	26390	191.000054	2
0	26400	191.015808	3
0	26407	191.015862	2
0	26441	191.036376	3
0	26448	191.03643	2
0	26458	191.055944	3
0	26465	191.055998	2
0	26475	191.067872	3
0	26482	191.067926	2
0	26492	191.07822	3
0	26499	191.078274	2
0	26508	191.086628	3
0	26515	191.086682	2
0	26727	192	3
0	26734	192.000054	2
0	26743	192.006548	3
0	26750	192.006602	2
0	26761	192.019616	3
0	26768	192.01967	2
0	26777	192.024484	3
0	26784	192.024538	2
0	26819	192.037872	3
0	26826	192.037926	2
0	26835	192.0395	3
0	26842	192.039554	2
0	26851	192.042888	3
0	26858	192.042942	2
0	26962	193	3
0	26969	193.000054	2
0	27094	194	3
0	27102	194.000054	2
0	27205	195	3
0	27212	195.000054	2
0	27314	196	3
0	27321	196.000054	2
0	27441	197	3
0	27448	197.000054	2
0	27565	198	3
0	27572	198.000054	2
0	27689	199	3
0	27696	199.000054	2
0	27796	200	3
0	27803	200.000054	2
0	27902	201	3
0	27909	201.000054	2
0	28132	202	3
0	28139	202.000054	2
0	28238	203	3
0	28245	203.000054	2
0	28344	204	3
0	28351	204.000054	2
0	28451	205	3
0	28458	205.000054	2
0	28560	206	3
0	28567	206.000054	2
0	28692	207	3
0	28699	207.000054	2
0	28822	208	3
0	28829	208.000054	2
0	28952	209	3
0	28959	209.000054	2
0	29062	210	3
0	29069	210.000054	2
0	29172	211	3
0	29179	211.000054	2
0	29304	212	3
0	29311	212.000054	2
0	29434	213	3
0	29441	213.000054	2
0	29565	214	3
0	29572	214.000054	2
0	29675	215	3
0	29682	215.000054	2
0	29785	216	3
0	29792	216.000054	2
0	29919	217	3
0	29926	217.000054	2
0	30049	218	3
0	30056	218.000054	2
0	30179	219	3
0	30186	219.000054	2
0	30289	220	3
0	30296	220.000054	2
0	30398	221	3
0	30405	221.000054	2
0	30532	222	3
0	30539	222.000054	2
0	30660	223	3
0	30667	223.000054	2
0	30784	224	3
0	30791	224.000054	2
0	30891	225	3
0	30898	225.000054	2
0	30997	226	3
0	31004	226.000054	2
0	31125	227	3
0	31132	227.000054	2
0	31249	228	3
0	31256	228.000054	2
0	31373	229	3
0	31380	229.000054	2
0	31480	230	3
0	31487	230.000054	2
0	31587	231	3
0	31594	231.000054	2
0	31713	232	3
0	31720	232.000054	2
0	31837	233	3
0	31844	233.000054	2
0	31962	234	3
0	31969	234.000054	2
0	32175	235	3
0	32182	235.000054	2
0	32398	236	3
0	32405	236.000054	2
0	32724	237	3
0	32731	237.000054	2
0	33050	238	3
0	33057	238.000054	2
0	33383	239	3
0	33390	239.000054	2
0	33697	240	3
0	33704	240.000054	2
0	33920	241	3
0	33928	241.000054	2
0	34247	242	3
0	34254	242.000054	2
0	34574	243	3
0	34581	243.000054	2
0	34898	244	3
0	34905	244.000054	2
0	35105	245	3
0	35112	245.000054	2
0	35211	246	3
0	35218	246.000054	2
0	35337	247	3
0	35344	247.000054	2
0	35412	247.264089120121	3
0	35419	247.264139120121	2
0	35449	247.270889863863	3
0	35457	247.270923863863	2
0	35466	247.274373863863	3
0	35473	247.274427863863	2
0	35524	247.275126606637	3
0	35532	247.275160606637	2
0	35603	248	3
0	35610	248.000054	2
0	35707	248.251777125397	3
0	35715	248.251811125397	2
0	35781	249	3
0	35788	249.000054	2
0	35797	249.001248	3
0	35804	249.001302	2
0	35813	249.003676	3
0	35820	249.00373	2
0	35829	249.007384	3
0	35836	249.007438	2
0	35845	249.009252	3
0	35852	249.009306	2
0	35863	249.01302	3
0	35870	249.013074	2
0	35906	249.028728	3
0	35913	249.028782	2
0	36088	250	3
0	36095	250.000054	2
0	36104	250.000168	3
0	36111	250.000222	2
0	36120	250.002396	3
0	36127	250.00245	2
0	36136	250.005244	3
0	36143	250.005298	2
0	36155	250.014452	3
0	36162	250.014506	2
0	36172	250.01746	3
0	36179	250.017514	2
0	36213	250.030228	3
0	36220	250.030282	2
0	36394	251	3
0	36401	251.000054	2
0	36411	251.015588	3
0	36418	251.015642	2
0	36427	251.019576	3
0	36434	251.01963	2
0	36470	251.037544	3
0	36477	251.037598	2
0	36486	251.045472	3
0	36493	251.045526	2
0	36503	251.05318	3
0	36510	251.053234	2
0	36521	251.070448	3
0	36528	251.070502	2
0	36830	252	3
0	36837	252.000054	2
0	36846	252.007008	3
0	36853	252.007062	2
0	36863	252.015476	3
0	36870	252.01553	2
0	36880	252.021864	3
0	36887	252.021918	2
0	36925	252.030252	3
0	36932	252.030306	2
0	36942	252.03396	3
0	36949	252.034014	2
0	36961	252.050388	3
0	36968	252.050442	2
0	37236	253	3
0	37243	253.000054	2
0	37379	254	3
0	37386	254.000054	2
0	37519	255	3
0	37526	255.000054	2
0	37743	256	3
0	37750	256.000054	2
0	38069	257	3
0	38076	257.000054	2
0	38393	258	3
0	38401	258.000054	2
0	38519	259	3
0	38526	259.000054	2
0	38732	260	3
0	38739	260.000054	2
0	38938	261	3
0	38945	261.000054	2
0	39161	262	3
0	39168	262.000054	2
0	39262	263	3
0	39270	263.000054	2
0	39366	264	3
0	39373	264.000054	2
0	39582	265	3
0	39589	265.000054	2
0	39764	266	3
0	39771	266.000054	2
0	40053	267	3
0	40060	267.000054	2
0	40274	268	3
0	40281	268.000054	2
0	40495	269	3
0	40502	269.000054	2
0	40699	270	3
0	40706	270.000054	2
0	40806	271	3
0	40813	271.000054	2
0	40934	272	3
0	40941	272.000054	2
0	41026	272.582836520001	3
0	41033	272.582886520001	2
0	41078	272.583185323971	3
0	41086	272.583219323971	2
0	41136	273	3
0	41143	273.000054	2
0	41245	274	3
0	41252	274.000054	2
0	41354	275	3
0	41361	275.000054	2
0	41463	276	3
0	41470	276.000054	2
0	41598	277	3
0	41605	277.000054	2
0	41728	278	3
0	41735	278.000054	2
0	41858	279	3
0	41865	279.000054	2
0	41968	280	3
0	41975	280.000054	2
0	42077	281	3
0	42084	281.000054	2
0	42171	281.568960341569	3
0	42179	281.568994341569	2
0	42227	282	3
0	42234	282.000054	2
0	42336	283	3
0	42343	283.000054	2
0	42445	284	3
0	42452	284.000054	2
0	42555	285	3
0	42562	285.000054	2
0	42664	286	3
0	42671	286.000054	2
0	42796	287	3
0	42803	287.000054	2
0	42926	288	3
0	42933	288.000054	2
0	43056	289	3
0	43063	289.000054	2
0	43167	290	3
0	43174	290.000054	2
0	43276	291	3
0	43283	291.000054	2
0	43404	292	3
0	43411	292.000054	2
0	43528	293	3
0	43535	293.000054	2
0	43652	294	3
0	43659	294.000054	2
0	43759	295	3
0	43766	295.000054	2
0	43865	296	3
0	43872	296.000054	2
0	43991	297	3
0	43998	297.000054	2
0	44115	298	3
0	44122	298.000054	2
0	44240	299	3
0	44247	299.000054	2
0	44347	300	3
0	44354	300.000054	2
0	44453	301	3
0	44460	301.000054	2
0	44582	302	3
0	44589	302.000054	2
0	44706	303	3
0	44713	303.000054	2
0	44830	304	3
0	44837	304.000054	2
0	44937	305	3
0	44944	305.000054	2
0	45043	306	3
0	45050	306.000054	2
0	45173	307	3
0	45180	307.000054	2
0	45303	308	3
0	45310	308.000054	2
0	45433	309	3
0	45440	309.000054	2
0	45543	310	3
0	45550	310.000054	2
0	45620	310.251409154344	3
0	45627	310.251463154344	2
0	45699	310.253209968607	3
0	45708	310.253243968607	2
0	45759	311	3
0	45766	311.000054	2
0	45867	311.252117160719	3
0	45876	311.252151160719	2
0	45947	312	3
0	45954	312.000054	2
0	45963	312.000988	3
0	45970	312.001042	2
0	45979	312.003276	3
0	45986	312.00333	2
0	45995	312.005304	3
0	46002	312.005358	2
0	46014	312.014852	3
0	46021	312.014906	2
0	46031	312.02012	3
0	46038	312.020174	2
0	46072	312.032128	3
0	46079	312.032182	2
0	46288	313	3
0	46295	313.000054	2
0	46304	313.000488	3
0	46311	313.000542	2
0	46320	313.002876	3
0	46327	313.00293	2
0	46336	313.005244	3
0	46343	313.005298	2
0	46352	313.009352	3
0	46359	313.009406	2
0	46371	313.01474	3
0	46378	313.014794	2
0	46389	313.023528	3
0	46396	313.023582	2
0	46630	314	3
0	46637	314.000054	2
0	46646	314.008568	3
0	46653	314.008622	2
0	46687	314.028056	3
0	46694	314.02811	2
0	46705	314.042884	3
0	46712	314.042938	2
0	46722	314.062572	3
0	46729	314.062626	2
0	46739	314.07302	3
0	46746	314.073074	2
0	46755	314.075388	3
0	46762	314.075442	2
0	46951	315	3
0	46958	315.000054	2
0	46967	315.004088	3
0	46974	315.004142	2
0	46985	315.015036	3
0	46992	315.01509	2
0	47001	315.017724	3
0	47008	315.017778	2
0	47017	315.021292	3
0	47024	315.021346	2
0	47033	315.0231	3
0	47040	315.023154	2
0	47049	315.024488	3
0	47056	315.024542	2
0	47275	316	3
0	47282	316.000054	2
0	47401	317	3
0	47408	317.000054	2
0	47525	318	3
0	47532	318.000054	2
0	47829	319	3
0	47836	319.000054	2
0	48139	320	3
0	48146	320.000054	2
0	48445	321	3
0	48452	321.000054	2
0	48885	322	3
0	48892	322.000054	2
0	49204	323	3
0	49211	323.000054	2
0	49568	324	3
0	49575	324.000054	2
0	49749	325	3
0	49756	325.000054	2
0	50058	326	3
0	50065	326.000054	2
0	50505	327	3
0	50513	327.000054	2
0	50552	327.000928782779	3
0	50561	327.000962782779	2
0	50569	327.003872782779	3
0	50576	327.003926782779	2
0	50590	327.019000782779	3
0	50597	327.019054782779	2
0	50781	327.251069136508	3
0	50790	327.251103136508	2
0	50937	328	3
0	50944	328.000054	2
0	50953	328.000308	3
0	50960	328.000362	2
0	50969	328.000616	3
0	50976	328.00067	2
0	50985	328.004764	3
0	50992	328.004818	2
0	51004	328.014752	3
0	51011	328.014806	2
0	51059	328.02972	3
0	51066	328.029774	2
0	51091	328.034288	3
0	51098	328.034342	2
0	51457	329	3
0	51464	329.000054	2
0	51473	329.000728	3
0	51480	329.000782	2
0	51489	329.001936	3
0	51496	329.00199	2
0	51505	329.003424	3
0	51512	329.003478	2
0	51521	329.004692	3
0	51528	329.004746	2
0	51537	329.0089	3
0	51544	329.008954	2
0	51558	329.016548	3
0	51565	329.016602	2
0	51777	330	3
0	51784	330.000054	2
0	51794	330.011288	3
0	51801	330.011342	2
0	51810	330.017136	3
0	51817	330.01719	2
0	51827	330.022284	3
0	51834	330.022338	2
0	51843	330.025532	3
0	51850	330.025586	2
0	51886	330.04054	3
0	51893	330.040594	2
0	51902	330.041268	3
0	51909	330.041322	2
0	52097	331	3
0	52104	331.000054	2
0	52113	331.002608	3
0	52120	331.002662	2
0	52131	331.014496	3
0	52138	331.01455	2
0	52147	331.020464	3
0	52154	331.020518	2
0	52187	331.029972	3
0	52194	331.030026	2
0	52206	331.04162	3
0	52213	331.041674	2
0	52223	331.057208	3
0	52230	331.057262	2
0	52440	332	3
0	52447	332.000054	2
0	52457	332.016208	3
0	52464	332.016262	2
0	52473	332.020376	3
0	52480	332.02043	2
0	52514	332.035164	3
0	52521	332.035218	2
0	52531	332.036272	3
0	52538	332.036326	2
0	52547	332.04392	3
0	52554	332.043974	2
0	52566	332.063408	3
0	52573	332.063462	2
0	52819	333	3
0	52826	333.000054	2
0	53158	334	3
0	53166	334.000054	2
0	53480	335	3
0	53487	335.000054	2
0	53803	336	3
0	53810	336.000054	2
0	54146	337	3
0	54153	337.000054	2
0	54388	338	3
0	54395	338.000054	2
0	54518	339	3
0	54525	339.000054	2
0	54628	340	3
0	54635	340.000054	2
0	54737	341	3
0	54744	341.000054	2
0	54871	342	3
0	54878	342.000054	2
0	54917	342.0043087527	3
0	54926	342.0043427527	2
0	54934	342.0076527527	3
0	54941	342.0077067527	2
0	55028	342.251069122176	3
0	55037	342.251103122176	2
0	55105	343	3
0	55112	343.000054	2
0	55371	344	3
0	55378	344.000054	2
0	55387	344.001328	3
0	55394	344.001382	2
0	55403	344.002636	3
0	55410	344.00269	2
0	55419	344.003144	3
0	55426	344.003198	2
0	55435	344.003532	3
0	55442	344.003586	2
0	55456	344.02162	3
0	55463	344.021674	2
0	55495	344.027428	3
0	55502	344.027482	2
0	55692	345	3
0	55699	345.000054	2
0	55708	345.000208	3
0	55715	345.000262	2
0	55724	345.001536	3
0	55731	345.00159	2
0	55740	345.006644	3
0	55747	345.006698	2
0	55759	345.014232	3
0	55766	345.014286	2
0	55777	345.0246	3
0	55784	345.024654	2
0	55816	345.033148	3
0	55823	345.033202	2
0	56012	346	3
0	56019	346.000054	2
0	56029	346.013068	3
0	56036	346.013122	2
0	56045	346.020216	3
0	56052	346.02027	2
0	56062	346.023164	3
0	56069	346.023218	2
0	56103	346.035512	3
0	56110	346.035566	2
0	56120	346.0403	3
0	56127	346.040354	2
0	56138	346.051008	3
0	56145	346.051062	2
0	56355	347	3
0	56362	347.000054	2
0	56372	347.012288	3
0	56379	347.012342	2
0	56389	347.023636	3
0	56396	347.02369	2
0	56430	347.039884	3
0	56437	347.039938	2
0	56446	347.049192	3
0	56453	347.049246	2
0	56464	347.06184	3
0	56471	347.061894	2
0	56481	347.079508	3
0	56488	347.079562	2
0	56589	348	3
0	56596	348.000054	2
0	56721	349	3
0	56729	349.000054	2
0	56833	350	3
0	56840	350.000054	2
0	56940	351	3
0	56947	351.000054	2
0	57067	352	3
0	57074	352.000054	2
0	57191	353	3
0	57198	353.000054	2
0	57315	354	3
0	57322	354.000054	2
0	57422	355	3
0	57429	355.000054	2
0	57528	356	3
0	57535	356.000054	2
0	57654	357	3
0	57661	357.000054	2
0	57778	358	3
0	57785	358.000054	2
0	57902	359	3
0	57909	359.000054	2
0	58009	360	3
0	58016	360.000054	2
0	58118	361	3
0	58125	361.000054	2
0	58213	361.568960467967	3
0	58221	361.568994467967	2
0	58269	362	3
0	58276	362.000054	2
0	58378	363	3
0	58385	363.000054	2
1	0	0	0
2	0	0	0
2	0	0	0
2	0	0	2
2	2036	39.251004747152	3
2	2045	39.251058747152	2
2	2102	40.251004747152	3
2	2109	40.251058747152	2
2	2166	41.251004747152	3
2	2173	41.251058747152	2
2	2250	42.251004747152	3
2	2257	42.251058747152	2
2	2333	43.251004747152	3
2	2340	43.251058747152	2
2	2415	44.251004747152	3
2	2422	44.251058747152	2
2	2482	45.251004747152	3
2	2489	45.251058747152	2
2	2546	46.251004747152	3
2	2553	46.251058747152	2
2	2630	47.251004747152	3
2	2637	47.251058747152	2
2	2712	48.251004747152	3
2	2719	48.251058747152	2
2	2794	49.251004747152	3
2	2801	49.251058747152	2
2	2859	50.251004747152	3
2	2866	50.251058747152	2
2	2923	51.251004747152	3
2	2930	51.251058747152	2
2	3007	52.251004747152	3
2	3014	52.251058747152	2
2	3089	53.251004747152	3
2	3096	53.251058747152	2
2	3171	54.251004747152	3
2	3178	54.251058747152	2
2	3236	55.251004747152	3
2	3243	55.251058747152	2
2	3300	56.251004747152	3
2	3307	56.251058747152	2
2	3382	57.251004747152	3
2	3389	57.251058747152	2
2	3458	58.251004747152	3
2	3465	58.251058747152	2
2	3534	59.251004747152	3
2	3541	59.251058747152	2
2	3593	60.251004747152	3
2	3600	60.251058747152	2
2	3651	61.251004747152	3
2	3658	61.251058747152	2
2	3729	62.251004747152	3
2	3736	62.251058747152	2
2	3805	63.251004747152	3
2	3812	63.251058747152	2
2	3881	64.251004747152	3
2	3888	64.251058747152	2
2	3940	65.251004747152	3
2	3947	65.251058747152	2
2	3998	66.251004747152	3
2	4006	66.251058747152	2
2	4077	67.251004747152	3
2	4084	67.251058747152	2
[...]
242	58444	251.3	0
242	58444	251.4	0
242	58444	251.5	0
242	58444	251.6	0
242	58444	251.7	0
242	58444	251.8	0
242	58444	251.9	0
242	58444	252	0
242	58444	252.1	0
242	58444	252.2	0
242	58444	252.3	0
242	58444	252.4	0
242	58444	252.5	0
242	58444	252.6	0
242	58444	252.7	0
242	58444	252.8	0
242	58444	252.9	0
242	58444	253	0
242	58444	253.1	0
242	58444	253.2	0
242	58444	253.3	0
242	58444	253.4	0
242	58444	253.5	0
242	58444	253.6	0
242	58444	253.7	0
242	58444	253.8	0
242	58444	253.9	0
242	58444	254	0
242	58444	254.1	0
242	58444	254.2	0
242	58444	254.3	0
242	58444	254.4	0
242	58444	254.5	0
242	58444	254.6	0
242	58444	254.7	0
242	58444	254.8	0
242	58444	254.9	0
242	58444	255	0
242	58444	255.1	0
242	58444	255.2	0
242	58444	255.3	0
242	58444	255.4	0
242	58444	255.5	0
242	58444	255.6	0
242	58444	255.7	0
242	58444	255.8	0
242	58444	255.9	0
242	58444	256	0
242	58444	256.1	0
242	58444	256.2	0
242	58444	256.3	0
242	58444	256.4	0
242	58444	256.5	0
242	58444	256.6	0
242	58444	256.7	0
242	58444	256.8	0
242	58444	256.9	0
242	58444	257	0
242	58444	257.1	0
242	58444	257.2	0
242	58444	257.3	0
242	58444	257.4	0
242	58444	257.5	0
242	58444	257.6	0
242	58444	257.7	0
242	58444	257.8	0
242	58444	257.9	0
242	58444	258	0
242	58444	258.1	0
242	58444	258.2	0
242	58444	258.3	0
242	58444	258.4	0
242	58444	258.5	0
242	58444	258.6	0
242	58444	258.7	0
242	58444	258.8	0
242	58444	258.9	0
242	58444	259	0
242	58444	259.1	0
242	58444	259.2	0
242	58444	259.3	0
242	58444	259.4	0
242	58444	259.5	0
242	58444	259.6	0
242	58444	259.7	0
242	58444	259.8	0
242	58444	259.9	0
242	58444	260	0
242	58444	260.1	0
242	58444	260.2	0
242	58444	260.3	0
242	58444	260.4	0
242	58444	260.5	0
242	58444	260.6	0
242	58444	260.7	0
242	58444	260.8	0
242	58444	260.9	0
242	58444	261	0
242	58444	261.1	0
242	58444	261.2	0
242	58444	261.3	0
242	58444	261.4	0
242	58444	261.5	0
242	58444	261.6	0
242	58444	261.7	0
242	58444	261.8	0
242	58444	261.9	0
242	58444	262	0
242	58444	262.1	0
242	58444	262.2	0
242	58444	262.3	0
242	58444	262.4	0
242	58444	262.5	0
242	58444	262.6	0
242	58444	262.7	0
242	58444	262.8	0
242	58444	262.9	0
242	58444	263	0
242	58444	263.1	0
242	58444	263.2	0
242	58444	263.3	0
242	58444	263.4	0
242	58444	263.5	0
242	58444	263.6	0
242	58444	263.7	0
242	58444	263.8	0
242	58444	263.9	0
242	58444	264	0
242	58444	264.1	0
242	58444	264.2	0
242	58444	264.3	0
242	58444	264.4	0
242	58444	264.5	0
242	58444	264.6	0
242	58444	264.7	0
242	58444	264.8	0
242	58444	264.9	0
242	58444	265	0
242	58444	265.1	0
242	58444	265.2	0
242	58444	265.3	0
242	58444	265.4	0
242	58444	265.5	0
242	58444	265.6	0
242	58444	265.7	0
242	58444	265.8	0
242	58444	265.9	0
242	58444	266	0
242	58444	266.1	0
242	58444	266.2	0
242	58444	266.3	0
242	58444	266.4	0
242	58444	266.5	0
242	58444	266.6	0
242	58444	266.7	0
242	58444	266.8	0
242	58444	266.9	0
242	58444	267	0
242	58444	267.1	0
242	58444	267.2	0
242	58444	267.3	0
242	58444	267.4	0
242	58444	267.5	0
242	58444	267.6	0
242	58444	267.7	0
242	58444	267.8	0
242	58444	267.9	0
242	58444	268	0
242	58444	268.1	0
242	58444	268.2	0
242	58444	268.3	0
242	58444	268.4	0
242	58444	268.5	0
242	58444	268.6	0
242	58444	268.7	0
242	58444	268.8	0
242	58444	268.9	0
242	58444	269	0
242	58444	269.1	0
242	58444	269.2	0
242	58444	269.3	0
242	58444	269.4	0
242	58444	269.5	0
242	58444	269.6	0
242	58444	269.7	0
242	58444	269.8	0
242	58444	269.9	0
242	58444	270	0
242	58444	270.1	0
242	58444	270.2	0
242	58444	270.3	0
242	58444	270.4	0
242	58444	270.5	0
242	58444	270.6	0
242	58444	270.7	0
242	58444	270.8	0
242	58444	270.9	0
242	58444	271	0
242	58444	271.1	0
242	58444	271.2	0
242	58444	271.3	0
242	58444	271.4	0
242	58444	271.5	0
242	58444	271.6	0
242	58444	271.7	0
242	58444	271.8	0
242	58444	271.9	0
242	58444	272	0
242	58444	272.1	0
242	58444	272.2	0
242	58444	272.3	0
242	58444	272.4	0
242	58444	272.5	0
242	58444	272.6	0
242	58444	272.7	0
242	58444	272.8	0
242	58444	272.9	0
242	58444	273	0
242	58444	273.1	0
242	58444	273.2	0
242	58444	273.3	0
242	58444	273.4	0
242	58444	273.5	0
242	58444	273.6	0
242	58444	273.7	0
242	58444	273.8	0
242	58444	273.9	0
242	58444	274	0
242	58444	274.1	0
242	58444	274.2	0
242	58444	274.3	0
242	58444	274.4	0
242	58444	274.5	0
242	58444	274.6	0
242	58444	274.7	0
242	58444	274.8	0
242	58444	274.9	0
242	58444	275	0
242	58444	275.1	0
242	58444	275.2	0
242	58444	275.3	0
242	58444	275.4	0
242	58444	275.5	0
242	58444	275.6	0
242	58444	275.7	0
242	58444	275.8	0
242	58444	275.9	0
242	58444	276	0
242	58444	276.1	0
242	58444	276.2	0
242	58444	276.3	0
242	58444	276.4	0
242	58444	276.5	0
242	58444	276.6	0
242	58444	276.7	0
242	58444	276.8	0
242	58444	276.9	0
242	58444	277	0
242	58444	277.1	0
242	58444	277.2	0
242	58444	277.3	0
242	58444	277.4	0
242	58444	277.5	0
242	58444	277.6	0
242	58444	277.7	0
242	58444	277.8	0
242	58444	277.9	0
242	58444	278	0
242	58444	278.1	0
242	58444	278.2	0
242	58444	278.3	0
242	58444	278.4	0
242	58444	278.5	0
242	58444	278.6	0
242	58444	278.7	0
242	58444	278.8	0
242	58444	278.9	0
242	58444	279	0
242	58444	279.1	0
242	58444	279.2	0
242	58444	279.3	0
242	58444	279.4	0
242	58444	279.5	0
242	58444	279.6	0
242	58444	279.7	0
242	58444	279.8	0
242	58444	279.9	0
242	58444	280	0
242	58444	280.1	0
242	58444	280.2	0
242	58444	280.3	0
242	58444	280.4	0
242	58444	280.5	0
242	58444	280.6	0
242	58444	280.7	0
242	58444	280.8	0
242	58444	280.9	0
242	58444	281	0
242	58444	281.1	0
242	58444	281.2	0
242	58444	281.3	0
242	58444	281.4	0
242	58444	281.5	0
242	58444	281.6	0
242	58444	281.7	0
242	58444	281.8	0
242	58444	281.9	0
242	58444	282	0
242	58444	282.1	0
242	58444	282.2	0
242	58444	282.3	0
242	58444	282.4	0
242	58444	282.5	0
242	58444	282.6	0
242	58444	282.7	0
242	58444	282.8	0
242	58444	282.9	0
242	58444	283	0
242	58444	283.1	0
242	58444	283.2	0
242	58444	283.3	0
242	58444	283.4	0
242	58444	283.5	0
242	58444	283.6	0
242	58444	283.7	0
242	58444	283.8	0
242	58444	283.9	0
242	58444	284	0
242	58444	284.1	0
242	58444	284.2	0
242	58444	284.3	0
242	58444	284.4	0
242	58444	284.5	0
242	58444	284.6	0
242	58444	284.7	0
242	58444	284.8	0
242	58444	284.9	0
242	58444	285	0
242	58444	285.1	0
242	58444	285.2	0
242	58444	285.3	0
242	58444	285.4	0
242	58444	285.5	0
242	58444	285.6	0
242	58444	285.7	0
242	58444	285.8	0
242	58444	285.9	0
242	58444	286	0
242	58444	286.1	0
242	58444	286.2	0
242	58444	286.3	0
242	58444	286.4	0
242	58444	286.5	0
242	58444	286.6	0
242	58444	286.7	0
242	58444	286.8	0
242	58444	286.9	0
242	58444	287	0
242	58444	287.1	0
242	58444	287.2	0
242	58444	287.3	0
242	58444	287.4	0
242	58444	287.5	0
242	58444	287.6	0
242	58444	287.7	0
242	58444	287.8	0
242	58444	287.9	0
242	58444	288	0
242	58444	288.1	0
242	58444	288.2	0
242	58444	288.3	0
242	58444	288.4	0
242	58444	288.5	0
242	58444	288.6	0
242	58444	288.7	0
242	58444	288.8	0
242	58444	288.9	0
242	58444	289	0
242	58444	289.1	0
242	58444	289.2	0
242	58444	289.3	0
242	58444	289.4	0
242	58444	289.5	0
242	58444	289.6	0
242	58444	289.7	0
242	58444	289.8	0
242	58444	289.9	0
242	58444	290	0
242	58444	290.1	0
242	58444	290.2	0
242	58444	290.3	0
242	58444	290.4	0
242	58444	290.5	0
242	58444	290.6	0
242	58444	290.7	0
242	58444	290.8	0
242	58444	290.9	0
242	58444	291	0
242	58444	291.1	0
242	58444	291.2	0
242	58444	291.3	0
242	58444	291.4	0
242	58444	291.5	0
242	58444	291.6	0
242	58444	291.7	0
242	58444	291.8	0
242	58444	291.9	0
242	58444	292	0
242	58444	292.1	0
242	58444	292.2	0
242	58444	292.3	0
242	58444	292.4	0
242	58444	292.5	0
242	58444	292.6	0
242	58444	292.7	0
242	58444	292.8	0
242	58444	292.9	0
242	58444	293	0
242	58444	293.1	0
242	58444	293.2	0
242	58444	293.3	0
242	58444	293.4	0
242	58444	293.5	0
242	58444	293.6	0
242	58444	293.7	0
242	58444	293.8	0
242	58444	293.9	0
242	58444	294	0
242	58444	294.1	0
242	58444	294.2	0
242	58444	294.3	0
242	58444	294.4	0
242	58444	294.5	0
242	58444	294.6	0
242	58444	294.7	0
242	58444	294.8	0
242	58444	294.9	0
242	58444	295	0
242	58444	295.1	0
242	58444	295.2	0
242	58444	295.3	0
242	58444	295.4	0
242	58444	295.5	0
242	58444	295.6	0
242	58444	295.7	0
242	58444	295.8	0
242	58444	295.9	0
242	58444	296	0
242	58444	296.1	0
242	58444	296.2	0
242	58444	296.3	0
242	58444	296.4	0
242	58444	296.5	0
242	58444	296.6	0
242	58444	296.7	0
242	58444	296.8	0
242	58444	296.9	0
242	58444	297	0
242	58444	297.1	0
242	58444	297.2	0
242	58444	297.3	0
242	58444	297.4	0
242	58444	297.5	0
242	58444	297.6	0
242	58444	297.7	0
242	58444	297.8	0
242	58444	297.9	0
242	58444	298	0
242	58444	298.1	0
242	58444	298.2	0
242	58444	298.3	0
242	58444	298.4	0
242	58444	298.5	0
242	58444	298.6	0
242	58444	298.7	0
242	58444	298.8	0
242	58444	298.9	0
242	58444	299	0
242	58444	299.1	0
242	58444	299.2	0
242	58444	299.3	0
242	58444	299.4	0
242	58444	299.5	0
242	58444	299.6	0
242	58444	299.7	0
242	58444	299.8	0
242	58444	299.9	0
242	58444	300	0
242	58444	300.1	0
242	58444	300.2	0
242	58444	300.3	0
242	58444	300.4	0
242	58444	300.5	0
242	58444	300.6	0
242	58444	300.7	0
242	58444	300.8	0
242	58444	300.9	0
242	58444	301	0
242	58444	301.1	0
242	58444	301.2	0
242	58444	301.3	0
242	58444	301.4	0
242	58444	301.5	0
242	58444	301.6	0
242	58444	301.7	0
242	58444	301.8	0
242	58444	301.9	0
242	58444	302	0
242	58444	302.1	0
242	58444	302.2	0
242	58444	302.3	0
242	58444	302.4	0
242	58444	302.5	0
242	58444	302.6	0
242	58444	302.7	0
242	58444	302.8	0
242	58444	302.9	0
242	58444	303	0
242	58444	303.1	0
242	58444	303.2	0
242	58444	303.3	0
242	58444	303.4	0
242	58444	303.5	0
242	58444	303.6	0
242	58444	303.7	0
242	58444	303.8	0
242	58444	303.9	0
242	58444	304	0
242	58444	304.1	0
242	58444	304.2	0
242	58444	304.3	0
242	58444	304.4	0
242	58444	304.5	0
242	58444	304.6	0
242	58444	304.7	0
242	58444	304.8	0
242	58444	304.9	0
242	58444	305	0
242	58444	305.1	0
242	58444	305.2	0
242	58444	305.3	0
242	58444	305.4	0
242	58444	305.5	0
242	58444	305.6	0
242	58444	305.7	0
242	58444	305.8	0
242	58444	305.9	0
242	58444	306	0
242	58444	306.1	0
242	58444	306.2	0
242	58444	306.3	0
242	58444	306.4	0
242	58444	306.5	0
242	58444	306.6	0
242	58444	306.7	0
242	58444	306.8	0
242	58444	306.9	0
242	58444	307	0
242	58444	307.1	0
242	58444	307.2	0
242	58444	307.3	0
242	58444	307.4	0
242	58444	307.5	0
242	58444	307.6	0
242	58444	307.7	0
242	58444	307.8	0
242	58444	307.9	0
242	58444	308	0
242	58444	308.1	0
242	58444	308.2	0
242	58444	308.3	0
242	58444	308.4	0
242	58444	308.5	0
242	58444	308.6	0
242	58444	308.7	0
242	58444	308.8	0
242	58444	308.9	0
242	58444	309	0
242	58444	309.1	0
242	58444	309.2	0
242	58444	309.3	0
242	58444	309.4	0
242	58444	309.5	0
242	58444	309.6	0
242	58444	309.7	0
242	58444	309.8	0
242	58444	309.9	0
242	58444	310	0
242	58444	310.1	0
242	58444	310.2	0
242	58444	310.3	0
242	58444	310.4	0
242	58444	310.5	0
242	58444	310.6	0
242	58444	310.7	0
242	58444	310.8	0
242	58444	310.9	0
242	58444	311	0
242	58444	311.1	0
242	58444	311.2	0
242	58444	311.3	0
242	58444	311.4	0
242	58444	311.5	0
242	58444	311.6	0
242	58444	311.7	0
242	58444	311.8	0
242	58444	311.9	0
242	58444	312	0
242	58444	312.1	0
242	58444	312.2	0
242	58444	312.3	0
242	58444	312.4	0
242	58444	312.5	0
242	58444	312.6	0
242	58444	312.7	0
242	58444	312.8	0
242	58444	312.9	0
242	58444	313	0
242	58444	313.1	0
242	58444	313.2	0
242	58444	313.3	0
242	58444	313.4	0
242	58444	313.5	0
242	58444	313.6	0
242	58444	313.7	0
242	58444	313.8	0
242	58444	313.9	0
242	58444	314	0
242	58444	314.1	0
242	58444	314.2	0
242	58444	314.3	0
242	58444	314.4	0
242	58444	314.5	0
242	58444	314.6	0
242	58444	314.7	0
242	58444	314.8	0
242	58444	314.9	0
242	58444	315	0
242	58444	315.1	0
242	58444	315.2	0
242	58444	315.3	0
242	58444	315.4	0
242	58444	315.5	0
242	58444	315.6	0
242	58444	315.7	0
242	58444	315.8	0
242	58444	315.9	0
242	58444	316	0
242	58444	316.1	0
242	58444	316.2	0
242	58444	316.3	0
242	58444	316.4	0
242	58444	316.5	0
242	58444	316.6	0
242	58444	316.7	0
242	58444	316.8	0
242	58444	316.9	0
242	58444	317	0
242	58444	317.1	0
242	58444	317.2	0
242	58444	317.3	0
242	58444	317.4	0
242	58444	317.5	0
242	58444	317.6	0
242	58444	317.7	0
242	58444	317.8	0
242	58444	317.9	0
242	58444	318	0
242	58444	318.1	0
242	58444	318.2	0
242	58444	318.3	0
242	58444	318.4	0
242	58444	318.5	0
242	58444	318.6	0
242	58444	318.7	0
242	58444	318.8	0
242	58444	318.9	0
242	58444	319	0
242	58444	319.1	0
242	58444	319.2	0
242	58444	319.3	0
242	58444	319.4	0
242	58444	319.5	0
242	58444	319.6	0
242	58444	319.7	0
242	58444	319.8	0
242	58444	319.9	0
242	58444	320	0
242	58444	320.1	0
242	58444	320.2	0
242	58444	320.3	0
242	58444	320.4	0
242	58444	320.5	0
242	58444	320.6	0
242	58444	320.7	0
242	58444	320.8	0
242	58444	320.9	0
242	58444	321	0
242	58444	321.1	0
242	58444	321.2	0
242	58444	321.3	0
242	58444	321.4	0
242	58444	321.5	0
242	58444	321.6	0
242	58444	321.7	0
242	58444	321.8	0
242	58444	321.9	0
242	58444	322	0
242	58444	322.1	0
242	58444	322.2	0
242	58444	322.3	0
242	58444	322.4	0
242	58444	322.5	0
242	58444	322.6	0
242	58444	322.7	0
242	58444	322.8	0
242	58444	322.9	0
242	58444	323	0
242	58444	323.1	0
242	58444	323.2	0
242	58444	323.3	0
242	58444	323.4	0
242	58444	323.5	0
242	58444	323.6	0
242	58444	323.7	0
242	58444	323.8	0
242	58444	323.9	0
242	58444	324	0
242	58444	324.1	0
242	58444	324.2	0
242	58444	324.3	0
242	58444	324.4	0
242	58444	324.5	0
242	58444	324.6	0
242	58444	324.7	0
242	58444	324.8	0
242	58444	324.9	0
242	58444	325	0
242	58444	325.1	0
242	58444	325.2	0
242	58444	325.3	0
242	58444	325.4	0
242	58444	325.5	0
242	58444	325.6	0
242	58444	325.7	0
242	58444	325.8	0
242	58444	325.9	0
242	58444	326	0
242	58444	326.1	0
242	58444	326.2	0
242	58444	326.3	0
242	58444	326.4	0
242	58444	326.5	0
242	58444	326.6	0
242	58444	326.7	0
242	58444	326.8	0
242	58444	326.9	0
242	58444	327	0
242	58444	327.1	0
242	58444	327.2	0
242	58444	327.3	0
242	58444	327.4	0
242	58444	327.5	0
242	58444	327.6	0
242	58444	327.7	0
242	58444	327.8	0
242	58444	327.9	0
242	58444	328	0
242	58444	328.1	0
242	58444	328.2	0
242	58444	328.3	0
242	58444	328.4	0
242	58444	328.5	0
242	58444	328.6	0
242	58444	328.7	0
242	58444	328.8	0
242	58444	328.9	0
242	58444	329	0
242	58444	329.1	0
242	58444	329.2	0
242	58444	329.3	0
242	58444	329.4	0
242	58444	329.5	0
242	58444	329.6	0
242	58444	329.7	0
242	58444	329.8	0
242	58444	329.9	0
242	58444	330	0
242	58444	330.1	0
242	58444	330.2	0
242	58444	330.3	0
242	58444	330.4	0
242	58444	330.5	0
242	58444	330.6	0
242	58444	330.7	0
242	58444	330.8	0
242	58444	330.9	0
242	58444	331	0
242	58444	331.1	0
242	58444	331.2	0
242	58444	331.3	0
242	58444	331.4	0
242	58444	331.5	0
242	58444	331.6	0
242	58444	331.7	0
242	58444	331.8	0
242	58444	331.9	0
242	58444	332	0
242	58444	332.1	0
242	58444	332.2	0
242	58444	332.3	0
242	58444	332.4	0
242	58444	332.5	0
242	58444	332.6	0
242	58444	332.7	0
242	58444	332.8	0
242	58444	332.9	0
242	58444	333	0
242	58444	333.1	0
242	58444	333.2	0
242	58444	333.3	0
242	58444	333.4	0
242	58444	333.5	0
242	58444	333.6	0
242	58444	333.7	0
242	58444	333.8	0
242	58444	333.9	0
242	58444	334	0
242	58444	334.1	0
242	58444	334.2	0
242	58444	334.3	0
242	58444	334.4	0
242	58444	334.5	0
242	58444	334.6	0
242	58444	334.7	0
242	58444	334.8	0
242	58444	334.9	0
242	58444	335	0
242	58444	335.1	0
242	58444	335.2	0
242	58444	335.3	0
242	58444	335.4	0
242	58444	335.5	0
242	58444	335.6	0
242	58444	335.7	0
242	58444	335.8	0
242	58444	335.9	0
242	58444	336	0
242	58444	336.1	0
242	58444	336.2	0
242	58444	336.3	0
242	58444	336.4	0
242	58444	336.5	0
242	58444	336.6	0
242	58444	336.7	0
242	58444	336.8	0
242	58444	336.9	0
242	58444	337	0
242	58444	337.1	0
242	58444	337.2	0
242	58444	337.3	0
242	58444	337.4	0
242	58444	337.5	0
242	58444	337.6	0
242	58444	337.7	0
242	58444	337.8	0
242	58444	337.9	0
242	58444	338	0
242	58444	338.1	0
242	58444	338.2	0
242	58444	338.3	0
242	58444	338.4	0
242	58444	338.5	0
242	58444	338.6	0
242	58444	338.7	0
242	58444	338.8	0
242	58444	338.9	0
242	58444	339	0
242	58444	339.1	0
242	58444	339.2	0
242	58444	339.3	0
242	58444	339.4	0
242	58444	339.5	0
242	58444	339.6	0
242	58444	339.7	0
242	58444	339.8	0
242	58444	339.9	0
242	58444	340	0
242	58444	340.1	0
242	58444	340.2	0
242	58444	340.3	0
242	58444	340.4	0
242	58444	340.5	0
242	58444	340.6	0
242	58444	340.7	0
242	58444	340.8	0
242	58444	340.9	0
242	58444	341	0
242	58444	341.1	0
242	58444	341.2	0
242	58444	341.3	0
242	58444	341.4	0
242	58444	341.5	0
242	58444	341.6	0
242	58444	341.7	0
242	58444	341.8	0
242	58444	341.9	0
242	58444	342	0
242	58444	342.1	0
242	58444	342.2	0
242	58444	342.3	0
242	58444	342.4	0
242	58444	342.5	0
242	58444	342.6	0
242	58444	342.7	0
242	58444	342.8	0
242	58444	342.9	0
242	58444	343	0
242	58444	343.1	0
242	58444	343.2	0
242	58444	343.3	0
242	58444	343.4	0
242	58444	343.5	0
242	58444	343.6	0
242	58444	343.7	0
242	58444	343.8	0
242	58444	343.9	0
242	58444	344	0
242	58444	344.1	0
242	58444	344.2	0
242	58444	344.3	0
242	58444	344.4	0
242	58444	344.5	0
242	58444	344.6	0
242	58444	344.7	0
242	58444	344.8	0
242	58444	344.9	0
242	58444	345	0
242	58444	345.1	0
242	58444	345.2	0
242	58444	345.3	0
242	58444	345.4	0
242	58444	345.5	0
242	58444	345.6	0
242	58444	345.7	0
242	58444	345.8	0
242	58444	345.9	0
242	58444	346	0
242	58444	346.1	0
242	58444	346.2	0
242	58444	346.3	0
242	58444	346.4	0
242	58444	346.5	0
242	58444	346.6	0
242	58444	346.7	0
242	58444	346.8	0
242	58444	346.9	0
242	58444	347	0
242	58444	347.1	0
242	58444	347.2	0
242	58444	347.3	0
242	58444	347.4	0
242	58444	347.5	0
242	58444	347.6	0
242	58444	347.7	0
242	58444	347.8	0
242	58444	347.9	0
242	58444	348	0
242	58444	348.1	0
242	58444	348.2	0
242	58444	348.3	0
242	58444	348.4	0
242	58444	348.5	0
242	58444	348.6	0
242	58444	348.7	0
242	58444	348.8	0
242	58444	348.9	0
242	58444	349	0
242	58444	349.1	0
242	58444	349.2	0
242	58444	349.3	0
242	58444	349.4	0
242	58444	349.5	0
242	58444	349.6	0
242	58444	349.7	0
242	58444	349.8	0
242	58444	349.9	0
242	58444	350	0
242	58444	350.1	0
242	58444	350.2	0
242	58444	350.3	0
242	58444	350.4	0
242	58444	350.5	0
242	58444	350.6	0
242	58444	350.7	0
242	58444	350.8	0
242	58444	350.9	0
242	58444	351	0
242	58444	351.1	0
242	58444	351.2	0
242	58444	351.3	0
242	58444	351.4	0
242	58444	351.5	0
242	58444	351.6	0
242	58444	351.7	0
242	58444	351.8	0
242	58444	351.9	0
242	58444	352	0
242	58444	352.1	0
242	58444	352.2	0
242	58444	352.3	0
242	58444	352.4	0
242	58444	352.5	0
242	58444	352.6	0
242	58444	352.7	0
242	58444	352.8	0
242	58444	352.9	0
242	58444	353	0
242	58444	353.1	0
242	58444	353.2	0
242	58444	353.3	0
242	58444	353.4	0
242	58444	353.5	0
242	58444	353.6	0
242	58444	353.7	0
242	58444	353.8	0
242	58444	353.9	0
242	58444	354	0
242	58444	354.1	0
242	58444	354.2	0
242	58444	354.3	0
242	58444	354.4	0
242	58444	354.5	0
242	58444	354.6	0
242	58444	354.7	0
242	58444	354.8	0
242	58444	354.9	0
242	58444	355	0
242	58444	355.1	0
242	58444	355.2	0
242	58444	355.3	0
242	58444	355.4	0
242	58444	355.5	0
242	58444	355.6	0
242	58444	355.7	0
242	58444	355.8	0
242	58444	355.9	0
242	58444	356	0
242	58444	356.1	0
242	58444	356.2	0
242	58444	356.3	0
242	58444	356.4	0
242	58444	356.5	0
242	58444	356.6	0
242	58444	356.7	0
242	58444	356.8	0
242	58444	356.9	0
242	58444	357	0
242	58444	357.1	0
242	58444	357.2	0
242	58444	357.3	0
242	58444	357.4	0
242	58444	357.5	0
242	58444	357.6	0
242	58444	357.7	0
242	58444	357.8	0
242	58444	357.9	0
242	58444	358	0
242	58444	358.1	0
242	58444	358.2	0
242	58444	358.3	0
242	58444	358.4	0
242	58444	358.5	0
242	58444	358.6	0
242	58444	358.7	0
242	58444	358.8	0
242	58444	358.9	0
242	58444	359	0
242	58444	359.1	0
242	58444	359.2	0
242	58444	359.3	0
242	58444	359.4	0
242	58444	359.5	0
242	58444	359.6	0
242	58444	359.7	0
242	58444	359.8	0
242	58444	359.9	0
242	58444	360	0
242	58444	360.1	0
242	58444	360.2	0
242	58444	360.3	0
242	58444	360.4	0
242	58444	360.5	0
242	58444	360.6	0
242	58444	360.7	0
242	58444	360.8	0
242	58444	360.9	0
242	58444	361	0
242	58444	361.1	0
242	58444	361.2	0
242	58444	361.3	0
242	58444	361.4	0
242	58444	361.5	0
242	58444	361.6	0
242	58444	361.7	0
242	58444	361.8	0
242	58444	361.9	0
242	58444	362	0
242	58444	362.1	0
242	58444	362.2	0
242	58444	362.3	0
242	58444	362.4	0
242	58444	362.5	0
242	58444	362.6	0
242	58444	362.7	0
242	58444	362.8	0
242	58444	362.9	0
242	58444	363	0
242	58444	363.1	0
242	58444	363.2	0
242	58444	363.3	0
242	58444	363.367333813639	0

