version 2
run Sim4drone-0-20210719-10:55:02-6284
attr configname Sim4drone
attr datetime 20210719-10:55:02
attr experiment Sim4drone
attr inifile mobilityDrones-omnetpp.ini
attr iterationvars ""
attr iterationvarsf ""
attr measurement ""
attr network mobilityDrones
attr processid 6284
attr repetition 0
attr replication #0
attr resultdir results
attr runnumber 0
attr seedset 0
param *.numUAVs 4
param *.drones[0].app[0].destAddresses "\"drones[1] drones[2] drones[3] sensor1\""
param *.drones[1].app[0].destAddresses "\"drones[0] drones[2] drones[3] sensor1\""
param *.drones[2].app[0].destAddresses "\"drones[0] drones[1] drones[3] sensor1\""
param *.drones[3].app[0].destAddresses "\"drones[0] drones[1] drones[2] sensor1\""
param *.drones[*].mobility.waypointFile "\"paths/mission.txt\""
param *.drones[*].app[*].timeoutDuration 5s
param *.drones[0].mobility.startTime 0s
param *.drones[1].mobility.startTime 40s
param *.drones[2].mobility.startTime 80s
param *.drones[3].mobility.startTime 110s
param *.drones[0].app[*].startTime "normal(1s, 1s)"
param *.drones[1].app[*].startTime "normal(40s, 1s)"
param *.drones[2].app[*].startTime "normal(80s, 1s)"
param *.drones[3].app[*].startTime "normal(110s, 1s)"
param *.sensor.osgModel "\"3d/drone.ive.100.scale.0,0,90.rot\""
param *.sensor.mobility.typename "\"StationaryMobility\""
param *.sensor*.mobility.coordinateSystemModule "\"\""
param *.sensor*.numApps 1
param *.sensor*.app[0].typename "\"UdpSensorCommunicationApp\""
param *.sensor*.app[0].destAddresses "\"drones[0] drones[1] drones[2] drones[3]\""
param *.sensor*.app[0].destPort 1000
param *.sensor*.app[0].sendInterval 3s
param *.sensor*.app[0].startTime exponential(1s)
param *.sensor*.app[0].messageLength 1454Byte
param *.sensor1.mobility.initialX 400m
param *.sensor1.mobility.initialY -200m
param *.sensor1.mobility.initialZ 3m
param *.visualizer.osgVisualizer.typename "\"IntegratedOsgVisualizer\""
param *.visualizer.osgVisualizer.sceneVisualizer.typename "\"SceneOsgEarthVisualizer\""
param *.visualizer.osgVisualizer.sceneVisualizer.mapFile "\"map.earth\""
param *.visualizer.osgVisualizer.sceneVisualizer.sceneImageSize 10000m
param *.visualizer.osgVisualizer.sceneVisualizer.axisLength 500m
param *.visualizer.osgVisualizer.sceneVisualizer.sceneMinX -200m
param *.visualizer.osgVisualizer.sceneVisualizer.sceneMinY -200m
param *.visualizer.osgVisualizer.sceneVisualizer.sceneMinZ 0m
param *.visualizer.osgVisualizer.sceneVisualizer.sceneMaxX 5000m
param *.visualizer.osgVisualizer.sceneVisualizer.sceneMaxY 5000m
param *.visualizer.osgVisualizer.sceneVisualizer.sceneMaxZ 5000m
param *.visualizer.osgVisualizer.networkNodeVisualizer.displayModuleName true
param *.visualizer.*.statisticVisualizer.signalName "\"dataLoad\""
param *.visualizer.*.statisticVisualizer.format "\"(%v/20)\""
param *.visualizer.*.statisticVisualizer.textColor "\"red\""
param *.visualizer.*.statisticVisualizer.font "\"bold\""
param *.visualizer.*.statisticVisualizer.sourceFilter "\"*.drones[*].**\""
param *.visualizer.*.mobilityVisualizer.displayMobility true
param *.visualizer.*.mobilityVisualizer.displayPositions true
param *.visualizer.*.mobilityVisualizer.displayOrientations true
param *.visualizer.*.mobilityVisualizer.displayVelocities true
param *.visualizer.*.mobilityVisualizer.displayMovementTrails true
param *.visualizer.*.mobilityVisualizer.animationSpeed 10
param *.visualizer.mediumVisualizer.displaySignals true
param **.constraintAreaMinX -5000m
param **.constraintAreaMinY -5000m
param **.constraintAreaMinZ -100m
param **.constraintAreaMaxX 5000m
param **.constraintAreaMaxY 5000m
param **.constraintAreaMaxZ 5000m
param *.drones*.wlan[0].radio.displayCommunicationRange true
param *.coordinateSystem.sceneLongitude -47.926634deg
param *.coordinateSystem.sceneLatitude -15.840075deg
param *.coordinateSystem.sceneHeading 90deg
param *.environment.ground.typename "\"FlatGround\""
param *.drones[*].osgModel "\"3d/drone.ive.80.scale.0,0,90.rot\""
param *.drones[*].mobility.coordinateSystemModule "\"coordinateSystem\""
param *.drones[*].mobility.waypointFile "\"paths/gradys-vai-e-volta-descendo-5s-v1.txt\""
param *.drones[*].mobility.waypointProximity 1m
param **.mobility.initFromDisplayString false
param *.drones[*].mobility.speed 10mps
param *.drones[*].numApps 1
param *.drones[*].app[0].typename "\"UdpMobileNodeCommunicationApp\""
param *.drones[*].app[0].localPort 1000
param *.drones[*].app[0].destPort 1000
param *.drones[*].app[0].sendInterval 1s
param *.drones[*].app[0].startTime 1s
param *.drones[*].app[0].stopTime -1s
param *.drones[*].app[0].messageLength 1454Byte
param *.drones[*].app[0].packetName "\"UAV-DEFAULT-PAYLOAD\""
param *.drones[*].mobility.typename "\"DroneMobility\""
param *.sensor.osgModel "\"3d/drone.ive.100.scale.0,0,90.rot\""
param *.sensor.mobility.typename "\"StationaryMobility\""
param *.sensor*.mobility.coordinateSystemModule "\"\""

vector 0 mobilityDrones.drones[0].wlan[0].radio radioMode:vector ETV
attr interpolationmode sample-hold
attr source radioModeChanged
attr title "Radio mode, vector"
vector 1 mobilityDrones.drones[0].wlan[0].radio radioChannel:vector ETV
attr interpolationmode sample-hold
attr source radioChannelChanged
attr title "Radio channel, vector"
vector 2 mobilityDrones.drones[1].wlan[0].radio radioMode:vector ETV
attr interpolationmode sample-hold
attr source radioModeChanged
attr title "Radio mode, vector"
vector 3 mobilityDrones.drones[1].wlan[0].radio radioChannel:vector ETV
attr interpolationmode sample-hold
attr source radioChannelChanged
attr title "Radio channel, vector"
vector 4 mobilityDrones.drones[2].wlan[0].radio radioMode:vector ETV
attr interpolationmode sample-hold
attr source radioModeChanged
attr title "Radio mode, vector"
vector 5 mobilityDrones.drones[2].wlan[0].radio radioChannel:vector ETV
attr interpolationmode sample-hold
attr source radioChannelChanged
attr title "Radio channel, vector"
vector 6 mobilityDrones.drones[3].wlan[0].radio radioMode:vector ETV
attr interpolationmode sample-hold
attr source radioModeChanged
attr title "Radio mode, vector"
vector 7 mobilityDrones.drones[3].wlan[0].radio radioChannel:vector ETV
attr interpolationmode sample-hold
attr source radioChannelChanged
attr title "Radio channel, vector"
vector 8 mobilityDrones.sensor1.wlan[0].radio radioMode:vector ETV
attr interpolationmode sample-hold
attr source radioModeChanged
attr title "Radio mode, vector"
vector 9 mobilityDrones.sensor1.wlan[0].radio radioChannel:vector ETV
attr interpolationmode sample-hold
attr source radioChannelChanged
attr title "Radio channel, vector"
vector 10 mobilityDrones.drones[0].wlan[0].radio receptionState:vector ETV
attr interpolationmode sample-hold
attr source receptionStateChanged
attr title "Radio reception state, vector"
vector 11 mobilityDrones.drones[1].wlan[0].radio receptionState:vector ETV
attr interpolationmode sample-hold
attr source receptionStateChanged
attr title "Radio reception state, vector"
vector 12 mobilityDrones.drones[2].wlan[0].radio receptionState:vector ETV
attr interpolationmode sample-hold
attr source receptionStateChanged
attr title "Radio reception state, vector"
vector 13 mobilityDrones.drones[3].wlan[0].radio receptionState:vector ETV
attr interpolationmode sample-hold
attr source receptionStateChanged
attr title "Radio reception state, vector"
vector 14 mobilityDrones.sensor1.wlan[0].radio receptionState:vector ETV
attr interpolationmode sample-hold
attr source receptionStateChanged
attr title "Radio reception state, vector"
vector 15 mobilityDrones.drones[0].wlan[0].mac.dcf.recoveryProcedure contentionWindowChanged:vector ETV
attr interpolationmode sample-hold
attr title "contention window, vector"
vector 16 mobilityDrones.drones[1].wlan[0].mac.dcf.recoveryProcedure contentionWindowChanged:vector ETV
attr interpolationmode sample-hold
attr title "contention window, vector"
vector 17 mobilityDrones.drones[2].wlan[0].mac.dcf.recoveryProcedure contentionWindowChanged:vector ETV
attr interpolationmode sample-hold
attr title "contention window, vector"
vector 18 mobilityDrones.drones[3].wlan[0].mac.dcf.recoveryProcedure contentionWindowChanged:vector ETV
attr interpolationmode sample-hold
attr title "contention window, vector"
vector 19 mobilityDrones.sensor1.wlan[0].mac.dcf.recoveryProcedure contentionWindowChanged:vector ETV
attr interpolationmode sample-hold
attr title "contention window, vector"
vector 20 mobilityDrones.drones[0].app[0] packetSent:vector(packetBytes) ETV
attr interpolationmode none
attr source packetSent
attr title "packets sent, vector(packetBytes)"
vector 21 mobilityDrones.drones[0].udp packetSent:vector(packetBytes) ETV
attr interpolationmode none
attr source packetSent
attr title "packets sent, vector(packetBytes)"
vector 22 mobilityDrones.drones[0].lo[0].lo rcvdPkFromHl:vector(packetBytes) ETV
attr interpolationmode none
attr source packetReceivedFromUpper
attr title "packets received from higher layer, vector(packetBytes)"
vector 23 mobilityDrones.drones[0].lo[0].lo passedUpPk:vector(packetBytes) ETV
attr interpolationmode none
attr source packetSentToUpper
attr title "packets passed to higher layer, vector(packetBytes)"
vector 24 mobilityDrones.drones[0].wlan[0].mac packetReceivedFromUpper:vector(packetBytes) ETV
attr interpolationmode none
attr title "packets received from upper layer, vector(packetBytes)"
vector 25 mobilityDrones.drones[0].wlan[0].mac.dcf.channelAccess.pendingQueue packetPushed:vector(packetBytes) ETV
attr interpolationmode none
attr title "packet pushed, vector(packetBytes)"
vector 26 mobilityDrones.drones[0].wlan[0].mac.dcf.channelAccess.pendingQueue queueLength:vector ETV
attr interpolationmode sample-hold
attr source "count(packetPushed) - count(packetPopped) - count(packetRemoved) - count(packetDropped)"
attr title "queue length, vector"
vector 27 mobilityDrones.drones[0].wlan[0].mac.dcf.channelAccess.contention backoffPeriodGenerated:vector ETV
attr interpolationmode none
attr title "backoff periods, vector"
vector 28 mobilityDrones.drones[0].wlan[0].mac.dcf.channelAccess.contention backoffActive:vector ETV
attr interpolationmode sample-hold
attr source count(backoffStarted)-count(backoffStopped)
attr title "backoff active, vector"
vector 29 mobilityDrones.drones[0].udp packetReceived:vector(packetBytes) ETV
attr interpolationmode none
attr source packetReceived
attr title "packets received, vector(packetBytes)"
vector 30 mobilityDrones.drones[0].udp passedUpPk:vector(count) ETV
attr interpolationmode none
attr source packetSentToUpper
attr title "packets passed up, vector(count)"
vector 31 mobilityDrones.drones[0].wlan[0].mac.dcf.channelAccess.pendingQueue packetPopped:vector(packetBytes) ETV
attr interpolationmode none
attr title "packet popped, vector(packetBytes)"
vector 32 mobilityDrones.drones[0].wlan[0].mac.dcf.channelAccess.pendingQueue queueingTime:vector ETV
attr interpolationmode none
attr source queueingTime(packetPopped)
attr title "queueing times, vector"
attr unit s
vector 33 mobilityDrones.drones[0].wlan[0].mac.dcf.channelAccess.inProgressFrames queueLength:vector ETV
attr interpolationmode sample-hold
attr source "count(packetEnqueued) - count(packetDequeued)"
attr title "queue length, vector"
vector 34 mobilityDrones.drones[0].wlan[0].mac.dcf datarateSelected:vector ETV
attr interpolationmode none
attr title "datarates selected, vector"
vector 35 mobilityDrones.drones[0].wlan[0].mac packetSentToLower:vector(packetBytes) ETV
attr interpolationmode none
attr title "packets sent to lower layer, vector(packetBytes)"
vector 36 mobilityDrones.drones[0].wlan[0].mac.dcf frameSequenceActive:vector ETV
attr interpolationmode sample-hold
attr source count(frameSequenceStarted)-count(frameSequenceFinished)
attr title "frame sequence active, vector"
vector 37 mobilityDrones.drones[0].wlan[0].radio transmissionState:vector ETV
attr interpolationmode sample-hold
attr source transmissionStateChanged
attr title "Radio transmission state, vector"
vector 38 mobilityDrones.drones[0].wlan[0].mac.dcf packetSentToPeer:vector(packetBytes) ETV
attr interpolationmode none
attr title "packets sent, vector(packetBytes)"
vector 39 mobilityDrones.drones[0].wlan[0].mac.dcf packetSentToPeerMulticast:vector(packetBytes) ETV
attr interpolationmode none
attr source ieee80211Multicast(packetSentToPeer)
attr title "packets sent: multicast, vector(packetBytes)"
vector 40 mobilityDrones.drones[0].wlan[0].mac.dcf packetSentToPeerWithoutRetry:vector(packetBytes) ETV
attr interpolationmode none
attr source ieee80211NotRetry(packetSentToPeer)
attr title "packets sent: without retry, vector(packetBytes)"
vector 41 mobilityDrones.drones[0].wlan[0].mac.dcf.channelAccess.inProgressFrames queueingTime:vector ETV
attr interpolationmode none
attr source queueingTime(packetDequeued)
attr title "queueing times, vector"
vector 42 mobilityDrones.drones[1].wlan[0].mac packetReceivedFromLower:vector(packetBytes) ETV
attr interpolationmode none
attr title "packets received from lower layer, vector(packetBytes)"
vector 43 mobilityDrones.drones[1].wlan[0].mac.dcf packetReceivedFromPeer:vector(packetBytes) ETV
attr interpolationmode none
attr title "packets received, vector(packetBytes)"
vector 44 mobilityDrones.drones[1].wlan[0].mac.dcf packetReceivedFromPeerMulticast:vector(packetBytes) ETV
attr interpolationmode none
attr source ieee80211Multicast(packetReceivedFromPeer)
attr title "packets received: multicast, vector(packetBytes)"
vector 45 mobilityDrones.drones[1].wlan[0].mac.dcf packetReceivedFromPeerWithoutRetry:vector(packetBytes) ETV
attr interpolationmode none
attr source ieee80211NotRetry(packetReceivedFromPeer)
attr title "packets received: without retry, vector(packetBytes)"
vector 46 mobilityDrones.drones[1].wlan[0].mac packetSentToUpper:vector(packetBytes) ETV
attr interpolationmode none
attr title "packets sent to upper layer, vector(packetBytes)"
vector 47 mobilityDrones.drones[2].wlan[0].mac packetReceivedFromLower:vector(packetBytes) ETV
attr interpolationmode none
attr title "packets received from lower layer, vector(packetBytes)"
vector 48 mobilityDrones.drones[2].wlan[0].mac.dcf packetReceivedFromPeer:vector(packetBytes) ETV
attr interpolationmode none
attr title "packets received, vector(packetBytes)"
vector 49 mobilityDrones.drones[2].wlan[0].mac.dcf packetReceivedFromPeerMulticast:vector(packetBytes) ETV
attr interpolationmode none
attr source ieee80211Multicast(packetReceivedFromPeer)
attr title "packets received: multicast, vector(packetBytes)"
vector 50 mobilityDrones.drones[2].wlan[0].mac.dcf packetReceivedFromPeerWithoutRetry:vector(packetBytes) ETV
attr interpolationmode none
attr source ieee80211NotRetry(packetReceivedFromPeer)
attr title "packets received: without retry, vector(packetBytes)"
vector 51 mobilityDrones.drones[2].wlan[0].mac packetSentToUpper:vector(packetBytes) ETV
attr interpolationmode none
attr title "packets sent to upper layer, vector(packetBytes)"
vector 52 mobilityDrones.drones[3].wlan[0].mac packetReceivedFromLower:vector(packetBytes) ETV
attr interpolationmode none
attr title "packets received from lower layer, vector(packetBytes)"
vector 53 mobilityDrones.drones[3].wlan[0].mac.dcf packetReceivedFromPeer:vector(packetBytes) ETV
attr interpolationmode none
attr title "packets received, vector(packetBytes)"
vector 54 mobilityDrones.drones[3].wlan[0].mac.dcf packetReceivedFromPeerMulticast:vector(packetBytes) ETV
attr interpolationmode none
attr source ieee80211Multicast(packetReceivedFromPeer)
attr title "packets received: multicast, vector(packetBytes)"
vector 55 mobilityDrones.drones[3].wlan[0].mac.dcf packetReceivedFromPeerWithoutRetry:vector(packetBytes) ETV
attr interpolationmode none
attr source ieee80211NotRetry(packetReceivedFromPeer)
attr title "packets received: without retry, vector(packetBytes)"
vector 56 mobilityDrones.drones[3].wlan[0].mac packetSentToUpper:vector(packetBytes) ETV
attr interpolationmode none
attr title "packets sent to upper layer, vector(packetBytes)"
vector 57 mobilityDrones.sensor1.app[0] packetSent:vector(packetBytes) ETV
attr interpolationmode none
attr source packetSent
attr title "packets sent, vector(packetBytes)"
vector 58 mobilityDrones.sensor1.udp packetSent:vector(packetBytes) ETV
attr interpolationmode none
attr source packetSent
attr title "packets sent, vector(packetBytes)"
vector 59 mobilityDrones.sensor1.ipv4.arp arpRequestSent:vector(packetBytes) ETV
attr source arpRequestSent
attr title "ARP request sent, vector(packetBytes)"
vector 60 mobilityDrones.sensor1.wlan[0].mac packetReceivedFromUpper:vector(packetBytes) ETV
attr interpolationmode none
attr title "packets received from upper layer, vector(packetBytes)"
vector 61 mobilityDrones.sensor1.wlan[0].mac.dcf.channelAccess.pendingQueue packetPushed:vector(packetBytes) ETV
attr interpolationmode none
attr title "packet pushed, vector(packetBytes)"
vector 62 mobilityDrones.sensor1.wlan[0].mac.dcf.channelAccess.pendingQueue queueLength:vector ETV
attr interpolationmode sample-hold
attr source "count(packetPushed) - count(packetPopped) - count(packetRemoved) - count(packetDropped)"
attr title "queue length, vector"
vector 63 mobilityDrones.sensor1.wlan[0].mac.dcf.channelAccess.contention backoffPeriodGenerated:vector ETV
attr interpolationmode none
attr title "backoff periods, vector"
vector 64 mobilityDrones.sensor1.wlan[0].mac.dcf.channelAccess.contention backoffActive:vector ETV
attr interpolationmode sample-hold
attr source count(backoffStarted)-count(backoffStopped)
attr title "backoff active, vector"
vector 65 mobilityDrones.sensor1.wlan[0].mac.dcf.channelAccess.pendingQueue packetPopped:vector(packetBytes) ETV
attr interpolationmode none
attr title "packet popped, vector(packetBytes)"
vector 66 mobilityDrones.sensor1.wlan[0].mac.dcf.channelAccess.pendingQueue queueingTime:vector ETV
attr interpolationmode none
attr source queueingTime(packetPopped)
attr title "queueing times, vector"
attr unit s
vector 67 mobilityDrones.sensor1.wlan[0].mac.dcf.channelAccess.inProgressFrames queueLength:vector ETV
attr interpolationmode sample-hold
attr source "count(packetEnqueued) - count(packetDequeued)"
attr title "queue length, vector"
vector 68 mobilityDrones.sensor1.wlan[0].mac.dcf datarateSelected:vector ETV
attr interpolationmode none
attr title "datarates selected, vector"
vector 69 mobilityDrones.sensor1.wlan[0].mac packetSentToLower:vector(packetBytes) ETV
attr interpolationmode none
attr title "packets sent to lower layer, vector(packetBytes)"
vector 70 mobilityDrones.sensor1.wlan[0].mac.dcf frameSequenceActive:vector ETV
attr interpolationmode sample-hold
attr source count(frameSequenceStarted)-count(frameSequenceFinished)
attr title "frame sequence active, vector"
vector 71 mobilityDrones.sensor1.wlan[0].radio transmissionState:vector ETV
attr interpolationmode sample-hold
attr source transmissionStateChanged
attr title "Radio transmission state, vector"
vector 72 mobilityDrones.sensor1.wlan[0].mac.dcf packetSentToPeer:vector(packetBytes) ETV
attr interpolationmode none
attr title "packets sent, vector(packetBytes)"
vector 73 mobilityDrones.sensor1.wlan[0].mac.dcf packetSentToPeerMulticast:vector(packetBytes) ETV
attr interpolationmode none
attr source ieee80211Multicast(packetSentToPeer)
attr title "packets sent: multicast, vector(packetBytes)"
vector 74 mobilityDrones.sensor1.wlan[0].mac.dcf packetSentToPeerBroadcast:vector(packetBytes) ETV
attr interpolationmode none
attr source ieee80211Broadcast(packetSentToPeer)
attr title "packets sent: broadcast , vector(packetBytes)"
vector 75 mobilityDrones.sensor1.wlan[0].mac.dcf packetSentToPeerWithoutRetry:vector(packetBytes) ETV
attr interpolationmode none
attr source ieee80211NotRetry(packetSentToPeer)
attr title "packets sent: without retry, vector(packetBytes)"
vector 76 mobilityDrones.sensor1.wlan[0].mac.dcf.channelAccess.inProgressFrames queueingTime:vector ETV
attr interpolationmode none
attr source queueingTime(packetDequeued)
attr title "queueing times, vector"
vector 77 mobilityDrones.sensor1.ipv4.ip packetDropAddressResolutionFailed:vector(packetBytes) ETV
attr interpolationmode none
attr source packetDropReasonIsAddressResolutionFailed(packetDropped)
attr title "packet drop: address resolution failed, vector(packetBytes)"
vector 78 mobilityDrones.drones[1].app[0] packetSent:vector(packetBytes) ETV
attr interpolationmode none
attr source packetSent
attr title "packets sent, vector(packetBytes)"
vector 79 mobilityDrones.drones[1].udp packetSent:vector(packetBytes) ETV
attr interpolationmode none
attr source packetSent
attr title "packets sent, vector(packetBytes)"
vector 80 mobilityDrones.drones[1].lo[0].lo rcvdPkFromHl:vector(packetBytes) ETV
attr interpolationmode none
attr source packetReceivedFromUpper
attr title "packets received from higher layer, vector(packetBytes)"
vector 81 mobilityDrones.drones[1].lo[0].lo passedUpPk:vector(packetBytes) ETV
attr interpolationmode none
attr source packetSentToUpper
attr title "packets passed to higher layer, vector(packetBytes)"
vector 82 mobilityDrones.drones[1].wlan[0].mac packetReceivedFromUpper:vector(packetBytes) ETV
attr interpolationmode none
attr title "packets received from upper layer, vector(packetBytes)"
vector 83 mobilityDrones.drones[1].wlan[0].mac.dcf.channelAccess.pendingQueue packetPushed:vector(packetBytes) ETV
attr interpolationmode none
attr title "packet pushed, vector(packetBytes)"
vector 84 mobilityDrones.drones[1].wlan[0].mac.dcf.channelAccess.pendingQueue queueLength:vector ETV
attr interpolationmode sample-hold
attr source "count(packetPushed) - count(packetPopped) - count(packetRemoved) - count(packetDropped)"
attr title "queue length, vector"
vector 85 mobilityDrones.drones[1].wlan[0].mac.dcf.channelAccess.contention backoffPeriodGenerated:vector ETV
attr interpolationmode none
attr title "backoff periods, vector"
vector 86 mobilityDrones.drones[1].wlan[0].mac.dcf.channelAccess.contention backoffActive:vector ETV
attr interpolationmode sample-hold
attr source count(backoffStarted)-count(backoffStopped)
attr title "backoff active, vector"
vector 87 mobilityDrones.drones[1].udp packetReceived:vector(packetBytes) ETV
attr interpolationmode none
attr source packetReceived
attr title "packets received, vector(packetBytes)"
vector 88 mobilityDrones.drones[1].udp passedUpPk:vector(count) ETV
attr interpolationmode none
attr source packetSentToUpper
attr title "packets passed up, vector(count)"
vector 89 mobilityDrones.drones[1].wlan[0].mac.dcf.channelAccess.pendingQueue packetPopped:vector(packetBytes) ETV
attr interpolationmode none
attr title "packet popped, vector(packetBytes)"
vector 90 mobilityDrones.drones[1].wlan[0].mac.dcf.channelAccess.pendingQueue queueingTime:vector ETV
attr interpolationmode none
attr source queueingTime(packetPopped)
attr title "queueing times, vector"
attr unit s
vector 91 mobilityDrones.drones[1].wlan[0].mac.dcf.channelAccess.inProgressFrames queueLength:vector ETV
attr interpolationmode sample-hold
attr source "count(packetEnqueued) - count(packetDequeued)"
attr title "queue length, vector"
vector 92 mobilityDrones.drones[1].wlan[0].mac.dcf datarateSelected:vector ETV
attr interpolationmode none
attr title "datarates selected, vector"
vector 93 mobilityDrones.drones[1].wlan[0].mac packetSentToLower:vector(packetBytes) ETV
attr interpolationmode none
attr title "packets sent to lower layer, vector(packetBytes)"
vector 94 mobilityDrones.drones[1].wlan[0].mac.dcf frameSequenceActive:vector ETV
attr interpolationmode sample-hold
attr source count(frameSequenceStarted)-count(frameSequenceFinished)
attr title "frame sequence active, vector"
vector 95 mobilityDrones.drones[1].wlan[0].radio transmissionState:vector ETV
attr interpolationmode sample-hold
attr source transmissionStateChanged
attr title "Radio transmission state, vector"
vector 96 mobilityDrones.drones[1].wlan[0].mac.dcf packetSentToPeer:vector(packetBytes) ETV
attr interpolationmode none
attr title "packets sent, vector(packetBytes)"
vector 97 mobilityDrones.drones[1].wlan[0].mac.dcf packetSentToPeerMulticast:vector(packetBytes) ETV
attr interpolationmode none
attr source ieee80211Multicast(packetSentToPeer)
attr title "packets sent: multicast, vector(packetBytes)"
vector 98 mobilityDrones.drones[1].wlan[0].mac.dcf packetSentToPeerWithoutRetry:vector(packetBytes) ETV
attr interpolationmode none
attr source ieee80211NotRetry(packetSentToPeer)
attr title "packets sent: without retry, vector(packetBytes)"
vector 99 mobilityDrones.drones[1].wlan[0].mac.dcf.channelAccess.inProgressFrames queueingTime:vector ETV
attr interpolationmode none
attr source queueingTime(packetDequeued)
attr title "queueing times, vector"
vector 100 mobilityDrones.drones[2].wlan[0].mac packetDrop:vector(packetBytes) ETV
attr interpolationmode none
attr source packetDropped
attr title "packet drops, vector(packetBytes)"
vector 101 mobilityDrones.drones[2].wlan[0].mac packetDropIncorrectlyReceived:vector(packetBytes) ETV
attr interpolationmode none
attr source packetDropReasonIsIncorrectlyReceived(packetDropped)
attr title "packet drops: incorrectly received, vector(packetBytes)"
vector 102 mobilityDrones.drones[2].app[0] packetSent:vector(packetBytes) ETV
attr interpolationmode none
attr source packetSent
attr title "packets sent, vector(packetBytes)"
vector 103 mobilityDrones.drones[2].udp packetSent:vector(packetBytes) ETV
attr interpolationmode none
attr source packetSent
attr title "packets sent, vector(packetBytes)"
vector 104 mobilityDrones.drones[2].lo[0].lo rcvdPkFromHl:vector(packetBytes) ETV
attr interpolationmode none
attr source packetReceivedFromUpper
attr title "packets received from higher layer, vector(packetBytes)"
vector 105 mobilityDrones.drones[2].lo[0].lo passedUpPk:vector(packetBytes) ETV
attr interpolationmode none
attr source packetSentToUpper
attr title "packets passed to higher layer, vector(packetBytes)"
vector 106 mobilityDrones.drones[2].wlan[0].mac packetReceivedFromUpper:vector(packetBytes) ETV
attr interpolationmode none
attr title "packets received from upper layer, vector(packetBytes)"
vector 107 mobilityDrones.drones[2].wlan[0].mac.dcf.channelAccess.pendingQueue packetPushed:vector(packetBytes) ETV
attr interpolationmode none
attr title "packet pushed, vector(packetBytes)"
vector 108 mobilityDrones.drones[2].wlan[0].mac.dcf.channelAccess.pendingQueue queueLength:vector ETV
attr interpolationmode sample-hold
attr source "count(packetPushed) - count(packetPopped) - count(packetRemoved) - count(packetDropped)"
attr title "queue length, vector"
vector 109 mobilityDrones.drones[2].wlan[0].mac.dcf.channelAccess.contention backoffPeriodGenerated:vector ETV
attr interpolationmode none
attr title "backoff periods, vector"
vector 110 mobilityDrones.drones[2].wlan[0].mac.dcf.channelAccess.contention backoffActive:vector ETV
attr interpolationmode sample-hold
attr source count(backoffStarted)-count(backoffStopped)
attr title "backoff active, vector"
vector 111 mobilityDrones.drones[2].udp packetReceived:vector(packetBytes) ETV
attr interpolationmode none
attr source packetReceived
attr title "packets received, vector(packetBytes)"
vector 112 mobilityDrones.drones[2].udp passedUpPk:vector(count) ETV
attr interpolationmode none
attr source packetSentToUpper
attr title "packets passed up, vector(count)"
vector 113 mobilityDrones.drones[2].wlan[0].mac.dcf.channelAccess.pendingQueue packetPopped:vector(packetBytes) ETV
attr interpolationmode none
attr title "packet popped, vector(packetBytes)"
vector 114 mobilityDrones.drones[2].wlan[0].mac.dcf.channelAccess.pendingQueue queueingTime:vector ETV
attr interpolationmode none
attr source queueingTime(packetPopped)
attr title "queueing times, vector"
attr unit s
vector 115 mobilityDrones.drones[2].wlan[0].mac.dcf.channelAccess.inProgressFrames queueLength:vector ETV
attr interpolationmode sample-hold
attr source "count(packetEnqueued) - count(packetDequeued)"
attr title "queue length, vector"
vector 116 mobilityDrones.drones[2].wlan[0].mac.dcf datarateSelected:vector ETV
attr interpolationmode none
attr title "datarates selected, vector"
vector 117 mobilityDrones.drones[2].wlan[0].mac packetSentToLower:vector(packetBytes) ETV
attr interpolationmode none
attr title "packets sent to lower layer, vector(packetBytes)"
vector 118 mobilityDrones.drones[2].wlan[0].mac.dcf frameSequenceActive:vector ETV
attr interpolationmode sample-hold
attr source count(frameSequenceStarted)-count(frameSequenceFinished)
attr title "frame sequence active, vector"
vector 119 mobilityDrones.drones[2].wlan[0].radio transmissionState:vector ETV
attr interpolationmode sample-hold
attr source transmissionStateChanged
attr title "Radio transmission state, vector"
vector 120 mobilityDrones.drones[2].wlan[0].mac.dcf packetSentToPeer:vector(packetBytes) ETV
attr interpolationmode none
attr title "packets sent, vector(packetBytes)"
vector 121 mobilityDrones.drones[2].wlan[0].mac.dcf packetSentToPeerMulticast:vector(packetBytes) ETV
attr interpolationmode none
attr source ieee80211Multicast(packetSentToPeer)
attr title "packets sent: multicast, vector(packetBytes)"
vector 122 mobilityDrones.drones[2].wlan[0].mac.dcf packetSentToPeerWithoutRetry:vector(packetBytes) ETV
attr interpolationmode none
attr source ieee80211NotRetry(packetSentToPeer)
attr title "packets sent: without retry, vector(packetBytes)"
vector 123 mobilityDrones.drones[2].wlan[0].mac.dcf.channelAccess.inProgressFrames queueingTime:vector ETV
attr interpolationmode none
attr source queueingTime(packetDequeued)
attr title "queueing times, vector"
vector 124 mobilityDrones.drones[0].wlan[0].mac packetReceivedFromLower:vector(packetBytes) ETV
attr interpolationmode none
attr title "packets received from lower layer, vector(packetBytes)"
vector 125 mobilityDrones.drones[0].wlan[0].mac packetDrop:vector(packetBytes) ETV
attr interpolationmode none
attr source packetDropped
attr title "packet drops, vector(packetBytes)"
vector 126 mobilityDrones.drones[0].wlan[0].mac packetDropIncorrectlyReceived:vector(packetBytes) ETV
attr interpolationmode none
attr source packetDropReasonIsIncorrectlyReceived(packetDropped)
attr title "packet drops: incorrectly received, vector(packetBytes)"
vector 127 mobilityDrones.sensor1.wlan[0].mac packetReceivedFromLower:vector(packetBytes) ETV
attr interpolationmode none
attr title "packets received from lower layer, vector(packetBytes)"
vector 128 mobilityDrones.sensor1.wlan[0].mac.dcf packetReceivedFromPeer:vector(packetBytes) ETV
attr interpolationmode none
attr title "packets received, vector(packetBytes)"
vector 129 mobilityDrones.sensor1.wlan[0].mac.dcf packetReceivedFromPeerMulticast:vector(packetBytes) ETV
attr interpolationmode none
attr source ieee80211Multicast(packetReceivedFromPeer)
attr title "packets received: multicast, vector(packetBytes)"
vector 130 mobilityDrones.sensor1.wlan[0].mac.dcf packetReceivedFromPeerWithoutRetry:vector(packetBytes) ETV
attr interpolationmode none
attr source ieee80211NotRetry(packetReceivedFromPeer)
attr title "packets received: without retry, vector(packetBytes)"
vector 131 mobilityDrones.sensor1.wlan[0].mac packetSentToUpper:vector(packetBytes) ETV
attr interpolationmode none
attr title "packets sent to upper layer, vector(packetBytes)"
vector 132 mobilityDrones.drones[0].wlan[0].mac.dcf packetReceivedFromPeer:vector(packetBytes) ETV
attr interpolationmode none
attr title "packets received, vector(packetBytes)"
vector 133 mobilityDrones.drones[0].wlan[0].mac.dcf packetReceivedFromPeerMulticast:vector(packetBytes) ETV
attr interpolationmode none
attr source ieee80211Multicast(packetReceivedFromPeer)
attr title "packets received: multicast, vector(packetBytes)"
vector 134 mobilityDrones.drones[0].wlan[0].mac.dcf packetReceivedFromPeerBroadcast:vector(packetBytes) ETV
attr interpolationmode none
attr source ieee80211Broadcast(packetReceivedFromPeer)
attr title "packets received: broadcast, vector(packetBytes)"
vector 135 mobilityDrones.drones[0].wlan[0].mac.dcf packetReceivedFromPeerWithoutRetry:vector(packetBytes) ETV
attr interpolationmode none
attr source ieee80211NotRetry(packetReceivedFromPeer)
attr title "packets received: without retry, vector(packetBytes)"
vector 136 mobilityDrones.drones[0].wlan[0].mac packetSentToUpper:vector(packetBytes) ETV
attr interpolationmode none
attr title "packets sent to upper layer, vector(packetBytes)"
vector 137 mobilityDrones.drones[0].ipv4.arp arpReplySent:vector(packetBytes) ETV
attr source arpReplySent
attr title "ARP replies sent, vector(packetBytes)"
vector 138 mobilityDrones.drones[0].wlan[0].mac.dcf packetSentToPeerUnicast:vector(packetBytes) ETV
attr interpolationmode none
attr source ieee80211Unicast(packetSentToPeer)
attr title "packets sent: unicast, vector(packetBytes)"
vector 139 mobilityDrones.drones[0].wlan[0].mac.rx nav:vector ETV
attr interpolationmode linear
attr source navChanged
attr title "network allocation vector, vector"
vector 140 mobilityDrones.sensor1.wlan[0].mac.dcf packetReceivedFromPeerUnicast:vector(packetBytes) ETV
attr interpolationmode none
attr source ieee80211Unicast(packetReceivedFromPeer)
attr title "packets received: unicast, vector(packetBytes)"
vector 141 mobilityDrones.sensor1.wlan[0].mac.dcf packetSentToPeerUnicast:vector(packetBytes) ETV
attr interpolationmode none
attr source ieee80211Unicast(packetSentToPeer)
attr title "packets sent: unicast, vector(packetBytes)"
vector 142 mobilityDrones.drones[0].wlan[0].mac.dcf packetReceivedFromPeerUnicast:vector(packetBytes) ETV
attr interpolationmode none
attr source ieee80211Unicast(packetReceivedFromPeer)
attr title "packets received: unicast, vector(packetBytes)"
vector 143 mobilityDrones.sensor1.wlan[0].mac.rx nav:vector ETV
attr interpolationmode linear
attr source navChanged
attr title "network allocation vector, vector"
vector 144 mobilityDrones.drones[0].app[0] packetReceived:vector(packetBytes) ETV
attr interpolationmode none
attr source packetReceived
attr title "packets received, vector(packetBytes)"
vector 145 mobilityDrones.drones[0].app[0] throughput:vector ETV
attr source throughput(packetReceived)
attr title "throughput, vector"
attr unit bps
vector 146 mobilityDrones.drones[0].app[0] rcvdPkLifetime:vector ETV
attr interpolationmode none
attr source dataAge(packetReceived)
attr title "received packet lifetime, vector"
attr unit s
vector 147 mobilityDrones.drones[3].app[0] packetSent:vector(packetBytes) ETV
attr interpolationmode none
attr source packetSent
attr title "packets sent, vector(packetBytes)"
vector 148 mobilityDrones.drones[3].udp packetSent:vector(packetBytes) ETV
attr interpolationmode none
attr source packetSent
attr title "packets sent, vector(packetBytes)"
vector 149 mobilityDrones.drones[3].lo[0].lo rcvdPkFromHl:vector(packetBytes) ETV
attr interpolationmode none
attr source packetReceivedFromUpper
attr title "packets received from higher layer, vector(packetBytes)"
vector 150 mobilityDrones.drones[3].lo[0].lo passedUpPk:vector(packetBytes) ETV
attr interpolationmode none
attr source packetSentToUpper
attr title "packets passed to higher layer, vector(packetBytes)"
vector 151 mobilityDrones.drones[3].wlan[0].mac packetReceivedFromUpper:vector(packetBytes) ETV
attr interpolationmode none
attr title "packets received from upper layer, vector(packetBytes)"
vector 152 mobilityDrones.drones[3].wlan[0].mac.dcf.channelAccess.pendingQueue packetPushed:vector(packetBytes) ETV
attr interpolationmode none
attr title "packet pushed, vector(packetBytes)"
vector 153 mobilityDrones.drones[3].wlan[0].mac.dcf.channelAccess.pendingQueue queueLength:vector ETV
attr interpolationmode sample-hold
attr source "count(packetPushed) - count(packetPopped) - count(packetRemoved) - count(packetDropped)"
attr title "queue length, vector"
vector 154 mobilityDrones.drones[3].wlan[0].mac.dcf.channelAccess.contention backoffPeriodGenerated:vector ETV
attr interpolationmode none
attr title "backoff periods, vector"
vector 155 mobilityDrones.drones[3].wlan[0].mac.dcf.channelAccess.contention backoffActive:vector ETV
attr interpolationmode sample-hold
attr source count(backoffStarted)-count(backoffStopped)
attr title "backoff active, vector"
vector 156 mobilityDrones.drones[3].udp packetReceived:vector(packetBytes) ETV
attr interpolationmode none
attr source packetReceived
attr title "packets received, vector(packetBytes)"
vector 157 mobilityDrones.drones[3].udp passedUpPk:vector(count) ETV
attr interpolationmode none
attr source packetSentToUpper
attr title "packets passed up, vector(count)"
vector 158 mobilityDrones.drones[3].wlan[0].mac.dcf.channelAccess.pendingQueue packetPopped:vector(packetBytes) ETV
attr interpolationmode none
attr title "packet popped, vector(packetBytes)"
vector 159 mobilityDrones.drones[3].wlan[0].mac.dcf.channelAccess.pendingQueue queueingTime:vector ETV
attr interpolationmode none
attr source queueingTime(packetPopped)
attr title "queueing times, vector"
attr unit s
vector 160 mobilityDrones.drones[3].wlan[0].mac.dcf.channelAccess.inProgressFrames queueLength:vector ETV
attr interpolationmode sample-hold
attr source "count(packetEnqueued) - count(packetDequeued)"
attr title "queue length, vector"
vector 161 mobilityDrones.drones[3].wlan[0].mac.dcf datarateSelected:vector ETV
attr interpolationmode none
attr title "datarates selected, vector"
vector 162 mobilityDrones.drones[3].wlan[0].mac packetSentToLower:vector(packetBytes) ETV
attr interpolationmode none
attr title "packets sent to lower layer, vector(packetBytes)"
vector 163 mobilityDrones.drones[3].wlan[0].mac.dcf frameSequenceActive:vector ETV
attr interpolationmode sample-hold
attr source count(frameSequenceStarted)-count(frameSequenceFinished)
attr title "frame sequence active, vector"
vector 164 mobilityDrones.drones[3].wlan[0].radio transmissionState:vector ETV
attr interpolationmode sample-hold
attr source transmissionStateChanged
attr title "Radio transmission state, vector"
vector 165 mobilityDrones.drones[3].wlan[0].mac.dcf packetSentToPeer:vector(packetBytes) ETV
attr interpolationmode none
attr title "packets sent, vector(packetBytes)"
vector 166 mobilityDrones.drones[3].wlan[0].mac.dcf packetSentToPeerMulticast:vector(packetBytes) ETV
attr interpolationmode none
attr source ieee80211Multicast(packetSentToPeer)
attr title "packets sent: multicast, vector(packetBytes)"
vector 167 mobilityDrones.drones[3].wlan[0].mac.dcf packetSentToPeerWithoutRetry:vector(packetBytes) ETV
attr interpolationmode none
attr source ieee80211NotRetry(packetSentToPeer)
attr title "packets sent: without retry, vector(packetBytes)"
vector 168 mobilityDrones.drones[3].wlan[0].mac.dcf.channelAccess.inProgressFrames queueingTime:vector ETV
attr interpolationmode none
attr source queueingTime(packetDequeued)
attr title "queueing times, vector"
vector 169 mobilityDrones.sensor1.wlan[0].mac.dcf packetSentToPeerWithRetry:vector(packetBytes) ETV
attr interpolationmode none
attr source ieee80211Retry(packetSentToPeer)
attr title "packets sent: with retry, vector(packetBytes)"
vector 170 mobilityDrones.sensor1.wlan[0].mac.dcf packetDrop:vector(packetBytes) ETV
attr interpolationmode none
attr source packetDropped
attr title "packet drops, vector(packetBytes)"
vector 171 mobilityDrones.sensor1.wlan[0].mac.dcf packetDropRetryLimitReached:vector(packetBytes) ETV
attr interpolationmode none
attr source packetDropReasonIsRetryLimitReached(packetDropped)
attr title "packet drops: retry limit reached, vector(packetBytes)"
vector 172 mobilityDrones.sensor1.wlan[0].mac packetDrop:vector(packetBytes) ETV
attr interpolationmode none
attr source packetDropped
attr title "packet drops, vector(packetBytes)"
vector 173 mobilityDrones.sensor1.wlan[0].mac packetDropRetryLimitReached:vector(packetBytes) ETV
attr interpolationmode none
attr source packetDropReasonIsRetryLimitReached(packetDropped)
attr title "packet drops: retry limit reached, vector(packetBytes)"
vector 174 mobilityDrones.sensor1.wlan[0].mac packetDropIncorrectlyReceived:vector(packetBytes) ETV
attr interpolationmode none
attr source packetDropReasonIsIncorrectlyReceived(packetDropped)
attr title "packet drops: incorrectly received, vector(packetBytes)"
vector 175 mobilityDrones.drones[1].wlan[0].mac packetDrop:vector(packetBytes) ETV
attr interpolationmode none
attr source packetDropped
attr title "packet drops, vector(packetBytes)"
vector 176 mobilityDrones.drones[1].wlan[0].mac packetDropIncorrectlyReceived:vector(packetBytes) ETV
attr interpolationmode none
attr source packetDropReasonIsIncorrectlyReceived(packetDropped)
attr title "packet drops: incorrectly received, vector(packetBytes)"
vector 177 mobilityDrones.drones[1].wlan[0].mac.dcf packetReceivedFromPeerBroadcast:vector(packetBytes) ETV
attr interpolationmode none
attr source ieee80211Broadcast(packetReceivedFromPeer)
attr title "packets received: broadcast, vector(packetBytes)"
vector 178 mobilityDrones.drones[1].app[0] packetReceived:vector(packetBytes) ETV
attr interpolationmode none
attr source packetReceived
attr title "packets received, vector(packetBytes)"
vector 179 mobilityDrones.drones[1].app[0] throughput:vector ETV
attr source throughput(packetReceived)
attr title "throughput, vector"
attr unit bps
vector 180 mobilityDrones.drones[1].app[0] rcvdPkLifetime:vector ETV
attr interpolationmode none
attr source dataAge(packetReceived)
attr title "received packet lifetime, vector"
attr unit s
vector 181 mobilityDrones.drones[1].ipv4.arp arpRequestSent:vector(packetBytes) ETV
attr source arpRequestSent
attr title "ARP request sent, vector(packetBytes)"
vector 182 mobilityDrones.drones[1].wlan[0].mac.dcf packetSentToPeerBroadcast:vector(packetBytes) ETV
attr interpolationmode none
attr source ieee80211Broadcast(packetSentToPeer)
attr title "packets sent: broadcast , vector(packetBytes)"
vector 183 mobilityDrones.sensor1.wlan[0].mac.dcf packetReceivedFromPeerBroadcast:vector(packetBytes) ETV
attr interpolationmode none
attr source ieee80211Broadcast(packetReceivedFromPeer)
attr title "packets received: broadcast, vector(packetBytes)"
vector 184 mobilityDrones.sensor1.wlan[0].mac.dcf packetDropNotAddressedToUs:vector(packetBytes) ETV
attr interpolationmode none
attr source packetDropReasonIsNotAddressedToUs(packetDropped)
attr title "packet drops: not addressed to us, vector(packetBytes)"
vector 185 mobilityDrones.sensor1.wlan[0].mac packetDropNotAddressedToUs:vector(packetBytes) ETV
attr interpolationmode none
attr source packetDropReasonIsNotAddressedToUs(packetDropped)
attr title "packet drops: not addressed to us, vector(packetBytes)"
vector 186 mobilityDrones.drones[1].wlan[0].mac.dcf packetReceivedFromPeerUnicast:vector(packetBytes) ETV
attr interpolationmode none
attr source ieee80211Unicast(packetReceivedFromPeer)
attr title "packets received: unicast, vector(packetBytes)"
vector 187 mobilityDrones.drones[1].wlan[0].mac.dcf packetSentToPeerUnicast:vector(packetBytes) ETV
attr interpolationmode none
attr source ieee80211Unicast(packetSentToPeer)
attr title "packets sent: unicast, vector(packetBytes)"
vector 188 mobilityDrones.drones[1].wlan[0].mac.rx nav:vector ETV
attr interpolationmode linear
attr source navChanged
attr title "network allocation vector, vector"
vector 189 mobilityDrones.drones[1].wlan[0].mac.dcf packetSentToPeerWithRetry:vector(packetBytes) ETV
attr interpolationmode none
attr source ieee80211Retry(packetSentToPeer)
attr title "packets sent: with retry, vector(packetBytes)"
vector 190 mobilityDrones.drones[0].wlan[0].mac.dcf packetReceivedFromPeerWithRetry:vector(packetBytes) ETV
attr interpolationmode none
attr source ieee80211Retry(packetReceivedFromPeer)
attr title "packets received: with retry, vector(packetBytes)"
vector 191 mobilityDrones.drones[0].wlan[0].mac.dcf packetSentToPeerWithRetry:vector(packetBytes) ETV
attr interpolationmode none
attr source ieee80211Retry(packetSentToPeer)
attr title "packets sent: with retry, vector(packetBytes)"
vector 192 mobilityDrones.drones[0].wlan[0].mac.dcf packetDrop:vector(packetBytes) ETV
attr interpolationmode none
attr source packetDropped
attr title "packet drops, vector(packetBytes)"
vector 193 mobilityDrones.drones[0].wlan[0].mac.dcf packetDropRetryLimitReached:vector(packetBytes) ETV
attr interpolationmode none
attr source packetDropReasonIsRetryLimitReached(packetDropped)
attr title "packet drops: retry limit reached, vector(packetBytes)"
vector 194 mobilityDrones.drones[0].wlan[0].mac packetDropRetryLimitReached:vector(packetBytes) ETV
attr interpolationmode none
attr source packetDropReasonIsRetryLimitReached(packetDropped)
attr title "packet drops: retry limit reached, vector(packetBytes)"
vector 195 mobilityDrones.drones[1].wlan[0].mac.dcf packetDrop:vector(packetBytes) ETV
attr interpolationmode none
attr source packetDropped
attr title "packet drops, vector(packetBytes)"
vector 196 mobilityDrones.drones[1].wlan[0].mac.dcf packetDropRetryLimitReached:vector(packetBytes) ETV
attr interpolationmode none
attr source packetDropReasonIsRetryLimitReached(packetDropped)
attr title "packet drops: retry limit reached, vector(packetBytes)"
vector 197 mobilityDrones.drones[1].wlan[0].mac packetDropRetryLimitReached:vector(packetBytes) ETV
attr interpolationmode none
attr source packetDropReasonIsRetryLimitReached(packetDropped)
attr title "packet drops: retry limit reached, vector(packetBytes)"
vector 198 mobilityDrones.drones[2].app[0] packetReceived:vector(packetBytes) ETV
attr interpolationmode none
attr source packetReceived
attr title "packets received, vector(packetBytes)"
vector 199 mobilityDrones.drones[2].app[0] throughput:vector ETV
attr source throughput(packetReceived)
attr title "throughput, vector"
attr unit bps
vector 200 mobilityDrones.drones[2].app[0] rcvdPkLifetime:vector ETV
attr interpolationmode none
attr source dataAge(packetReceived)
attr title "received packet lifetime, vector"
attr unit s
vector 201 mobilityDrones.drones[2].ipv4.arp arpRequestSent:vector(packetBytes) ETV
attr source arpRequestSent
attr title "ARP request sent, vector(packetBytes)"
vector 202 mobilityDrones.drones[2].wlan[0].mac.dcf packetSentToPeerBroadcast:vector(packetBytes) ETV
attr interpolationmode none
attr source ieee80211Broadcast(packetSentToPeer)
attr title "packets sent: broadcast , vector(packetBytes)"
vector 203 mobilityDrones.drones[1].ipv4.arp arpReplySent:vector(packetBytes) ETV
attr source arpReplySent
attr title "ARP replies sent, vector(packetBytes)"
vector 204 mobilityDrones.drones[2].wlan[0].mac.dcf packetReceivedFromPeerUnicast:vector(packetBytes) ETV
attr interpolationmode none
attr source ieee80211Unicast(packetReceivedFromPeer)
attr title "packets received: unicast, vector(packetBytes)"
vector 205 mobilityDrones.drones[2].wlan[0].mac.dcf packetSentToPeerUnicast:vector(packetBytes) ETV
attr interpolationmode none
attr source ieee80211Unicast(packetSentToPeer)
attr title "packets sent: unicast, vector(packetBytes)"
vector 206 mobilityDrones.drones[2].wlan[0].mac.rx nav:vector ETV
attr interpolationmode linear
attr source navChanged
attr title "network allocation vector, vector"
vector 207 mobilityDrones.drones[2].wlan[0].mac.dcf packetSentToPeerWithRetry:vector(packetBytes) ETV
attr interpolationmode none
attr source ieee80211Retry(packetSentToPeer)
attr title "packets sent: with retry, vector(packetBytes)"
vector 208 mobilityDrones.drones[1].wlan[0].mac.dcf packetReceivedFromPeerWithRetry:vector(packetBytes) ETV
attr interpolationmode none
attr source ieee80211Retry(packetReceivedFromPeer)
attr title "packets received: with retry, vector(packetBytes)"
vector 209 mobilityDrones.drones[2].wlan[0].mac.dcf packetDrop:vector(packetBytes) ETV
attr interpolationmode none
attr source packetDropped
attr title "packet drops, vector(packetBytes)"
vector 210 mobilityDrones.drones[2].wlan[0].mac.dcf packetDropRetryLimitReached:vector(packetBytes) ETV
attr interpolationmode none
attr source packetDropReasonIsRetryLimitReached(packetDropped)
attr title "packet drops: retry limit reached, vector(packetBytes)"
vector 211 mobilityDrones.drones[2].wlan[0].mac packetDropRetryLimitReached:vector(packetBytes) ETV
attr interpolationmode none
attr source packetDropReasonIsRetryLimitReached(packetDropped)
attr title "packet drops: retry limit reached, vector(packetBytes)"
vector 212 mobilityDrones.drones[3].wlan[0].mac packetDrop:vector(packetBytes) ETV
attr interpolationmode none
attr source packetDropped
attr title "packet drops, vector(packetBytes)"
vector 213 mobilityDrones.drones[3].wlan[0].mac packetDropIncorrectlyReceived:vector(packetBytes) ETV
attr interpolationmode none
attr source packetDropReasonIsIncorrectlyReceived(packetDropped)
attr title "packet drops: incorrectly received, vector(packetBytes)"
vector 214 mobilityDrones.drones[3].wlan[0].mac.dcf packetReceivedFromPeerBroadcast:vector(packetBytes) ETV
attr interpolationmode none
attr source ieee80211Broadcast(packetReceivedFromPeer)
attr title "packets received: broadcast, vector(packetBytes)"
vector 215 mobilityDrones.drones[3].ipv4.arp arpReplySent:vector(packetBytes) ETV
attr source arpReplySent
attr title "ARP replies sent, vector(packetBytes)"
vector 216 mobilityDrones.drones[3].wlan[0].mac.dcf packetSentToPeerUnicast:vector(packetBytes) ETV
attr interpolationmode none
attr source ieee80211Unicast(packetSentToPeer)
attr title "packets sent: unicast, vector(packetBytes)"
vector 217 mobilityDrones.drones[3].wlan[0].mac.rx nav:vector ETV
attr interpolationmode linear
attr source navChanged
attr title "network allocation vector, vector"
vector 218 mobilityDrones.drones[3].wlan[0].mac.dcf packetReceivedFromPeerUnicast:vector(packetBytes) ETV
attr interpolationmode none
attr source ieee80211Unicast(packetReceivedFromPeer)
attr title "packets received: unicast, vector(packetBytes)"
vector 219 mobilityDrones.drones[3].app[0] packetReceived:vector(packetBytes) ETV
attr interpolationmode none
attr source packetReceived
attr title "packets received, vector(packetBytes)"
vector 220 mobilityDrones.drones[3].app[0] throughput:vector ETV
attr source throughput(packetReceived)
attr title "throughput, vector"
attr unit bps
vector 221 mobilityDrones.drones[3].app[0] rcvdPkLifetime:vector ETV
attr interpolationmode none
attr source dataAge(packetReceived)
attr title "received packet lifetime, vector"
attr unit s
vector 222 mobilityDrones.drones[3].wlan[0].mac.dcf packetReceivedFromPeerWithRetry:vector(packetBytes) ETV
attr interpolationmode none
attr source ieee80211Retry(packetReceivedFromPeer)
attr title "packets received: with retry, vector(packetBytes)"
vector 223 mobilityDrones.drones[3].wlan[0].mac.dcf packetSentToPeerWithRetry:vector(packetBytes) ETV
attr interpolationmode none
attr source ieee80211Retry(packetSentToPeer)
attr title "packets sent: with retry, vector(packetBytes)"
vector 224 mobilityDrones.drones[3].wlan[0].mac.dcf packetDrop:vector(packetBytes) ETV
attr interpolationmode none
attr source packetDropped
attr title "packet drops, vector(packetBytes)"
vector 225 mobilityDrones.drones[3].wlan[0].mac.dcf packetDropRetryLimitReached:vector(packetBytes) ETV
attr interpolationmode none
attr source packetDropReasonIsRetryLimitReached(packetDropped)
attr title "packet drops: retry limit reached, vector(packetBytes)"
vector 226 mobilityDrones.drones[3].wlan[0].mac packetDropRetryLimitReached:vector(packetBytes) ETV
attr interpolationmode none
attr source packetDropReasonIsRetryLimitReached(packetDropped)
attr title "packet drops: retry limit reached, vector(packetBytes)"
vector 227 mobilityDrones.drones[2].wlan[0].mac.dcf packetReceivedFromPeerWithRetry:vector(packetBytes) ETV
attr interpolationmode none
attr source ieee80211Retry(packetReceivedFromPeer)
attr title "packets received: with retry, vector(packetBytes)"
vector 228 mobilityDrones.drones[1].wlan[0].mac.dcf packetDropNotAddressedToUs:vector(packetBytes) ETV
attr interpolationmode none
attr source packetDropReasonIsNotAddressedToUs(packetDropped)
attr title "packet drops: not addressed to us, vector(packetBytes)"
vector 229 mobilityDrones.drones[1].wlan[0].mac packetDropNotAddressedToUs:vector(packetBytes) ETV
attr interpolationmode none
attr source packetDropReasonIsNotAddressedToUs(packetDropped)
attr title "packet drops: not addressed to us, vector(packetBytes)"
vector 230 mobilityDrones.drones[1].wlan[0].mac.dcf.recipientMacDataService packetDropDuplicateDetected:vector(packetBytes) ETV
attr interpolationmode none
attr source packetDropReasonIsDuplicateDetected(packetDropped)
attr title "packet drops: duplicate detected, vector(packetBytes)"
vector 231 mobilityDrones.drones[1].wlan[0].mac packetDropDuplicateDetected:vector(packetBytes) ETV
attr interpolationmode none
attr source packetDropReasonIsDuplicateDetected(packetDropped)
attr title "packet drops: duplicate detected, vector(packetBytes)"
vector 232 mobilityDrones.drones[3].wlan[0].mac.dcf.recipientMacDataService packetDropDuplicateDetected:vector(packetBytes) ETV
attr interpolationmode none
attr source packetDropReasonIsDuplicateDetected(packetDropped)
attr title "packet drops: duplicate detected, vector(packetBytes)"
vector 233 mobilityDrones.drones[3].wlan[0].mac packetDropDuplicateDetected:vector(packetBytes) ETV
attr interpolationmode none
attr source packetDropReasonIsDuplicateDetected(packetDropped)
attr title "packet drops: duplicate detected, vector(packetBytes)"
vector 234 mobilityDrones.sensor1.wlan[0].mac.dcf packetReceivedFromPeerWithRetry:vector(packetBytes) ETV
attr interpolationmode none
attr source ieee80211Retry(packetReceivedFromPeer)
attr title "packets received: with retry, vector(packetBytes)"
vector 235 mobilityDrones.drones[3].wlan[0].mac.dcf packetDropNotAddressedToUs:vector(packetBytes) ETV
attr interpolationmode none
attr source packetDropReasonIsNotAddressedToUs(packetDropped)
attr title "packet drops: not addressed to us, vector(packetBytes)"
vector 236 mobilityDrones.drones[3].wlan[0].mac packetDropNotAddressedToUs:vector(packetBytes) ETV
attr interpolationmode none
attr source packetDropReasonIsNotAddressedToUs(packetDropped)
attr title "packet drops: not addressed to us, vector(packetBytes)"
vector 237 mobilityDrones.drones[3].ipv4.arp arpRequestSent:vector(packetBytes) ETV
attr source arpRequestSent
attr title "ARP request sent, vector(packetBytes)"
vector 238 mobilityDrones.drones[3].wlan[0].mac.dcf packetSentToPeerBroadcast:vector(packetBytes) ETV
attr interpolationmode none
attr source ieee80211Broadcast(packetSentToPeer)
attr title "packets sent: broadcast , vector(packetBytes)"
vector 239 mobilityDrones.drones[2].wlan[0].mac.dcf packetReceivedFromPeerBroadcast:vector(packetBytes) ETV
attr interpolationmode none
attr source ieee80211Broadcast(packetReceivedFromPeer)
attr title "packets received: broadcast, vector(packetBytes)"
vector 240 mobilityDrones.drones[2].ipv4.arp arpReplySent:vector(packetBytes) ETV
attr source arpReplySent
attr title "ARP replies sent, vector(packetBytes)"
vector 241 mobilityDrones.drones[0].wlan[0].mac.dcf packetDropNotAddressedToUs:vector(packetBytes) ETV
attr interpolationmode none
attr source packetDropReasonIsNotAddressedToUs(packetDropped)
attr title "packet drops: not addressed to us, vector(packetBytes)"
vector 242 mobilityDrones.drones[0].wlan[0].mac packetDropNotAddressedToUs:vector(packetBytes) ETV
attr interpolationmode none
attr source packetDropReasonIsNotAddressedToUs(packetDropped)
attr title "packet drops: not addressed to us, vector(packetBytes)"
0	0	0	0
0	0	0	0
0	0	0	2
0	66	0.00019	3
0	76	0.000244	2
0	113	1	3
0	120	1.000054	2
0	177	2	3
0	184	2.000054	2
0	238	3	3
0	245	3.000054	2
0	299	4	3
0	306	4.000054	2
0	364	5	3
0	371	5.000054	2
0	426	6	3
0	433	6.000054	2
0	487	7	3
0	494	7.000054	2
0	551	8	3
0	558	8.000054	2
0	612	9	3
0	619	9.000054	2
0	673	10	3
0	680	10.000054	2
0	737	11	3
0	744	11.000054	2
0	798	12	3
0	805	12.000054	2
0	859	13	3
0	866	13.000054	2
0	923	14	3
0	930	14.000054	2
0	984	15	3
0	991	15.000054	2
0	1045	16	3
0	1052	16.000054	2
0	1109	17	3
0	1116	17.000054	2
0	1161	18	3
0	1168	18.000054	2
0	1213	19	3
0	1220	19.000054	2
0	1268	20	3
0	1275	20.000054	2
0	1320	21	3
0	1327	21.000054	2
0	1372	22	3
0	1379	22.000054	2
0	1427	23	3
0	1434	23.000054	2
0	1479	24	3
0	1486	24.000054	2
0	1531	25	3
0	1538	25.000054	2
0	1586	26	3
0	1593	26.000054	2
0	1638	27	3
0	1645	27.000054	2
0	1691	28	3
0	1698	28.000054	2
0	1746	29	3
0	1753	29.000054	2
0	1798	30	3
0	1805	30.000054	2
0	1850	31	3
0	1857	31.000054	2
0	1905	32	3
0	1912	32.000054	2
0	1957	33	3
0	1964	33.000054	2
0	2009	34	3
0	2016	34.000054	2
0	2064	35	3
0	2071	35.000054	2
0	2116	36	3
0	2123	36.000054	2
0	2168	37	3
0	2175	37.000054	2
0	2223	38	3
0	2230	38.000054	2
0	2275	39	3
0	2282	39.000054	2
0	2359	40	3
0	2367	40.000054	2
0	2445	41	3
0	2452	41.000054	2
0	2527	42	3
0	2534	42.000054	2
0	2610	43	3
0	2617	43.000054	2
0	2695	44	3
0	2702	44.000054	2
0	2778	45	3
0	2786	45.000054	2
0	2861	46	3
0	2868	46.000054	2
0	2946	47	3
0	2953	47.000054	2
0	3028	48	3
0	3035	48.000054	2
0	3110	49	3
0	3117	49.000054	2
0	3195	50	3
0	3202	50.000054	2
0	3277	51	3
0	3284	51.000054	2
0	3359	52	3
0	3366	52.000054	2
0	3444	53	3
0	3451	53.000054	2
0	3526	54	3
0	3533	54.000054	2
0	3608	55	3
0	3615	55.000054	2
0	3693	56	3
0	3700	56.000054	2
0	3773	57	3
0	3780	57.000054	2
0	3849	58	3
0	3856	58.000054	2
0	3928	59	3
0	3935	59.000054	2
0	4004	60	3
0	4011	60.000054	2
0	4080	61	3
0	4087	61.000054	2
0	4159	62	3
0	4166	62.000054	2
0	4235	63	3
0	4242	63.000054	2
0	4311	64	3
0	4318	64.000054	2
0	4390	65	3
0	4397	65.000054	2
0	4466	66	3
0	4473	66.000054	2
0	4543	67	3
0	4550	67.000054	2
0	4623	68	3
0	4630	68.000054	2
0	4699	69	3
0	4706	69.000054	2
0	4775	70	3
0	4782	70.000054	2
0	4854	71	3
0	4861	71.000054	2
0	4930	72	3
0	4937	72.000054	2
0	5006	73	3
0	5013	73.000054	2
0	5085	74	3
0	5092	74.000054	2
0	5161	75	3
0	5168	75.000054	2
0	5237	76	3
0	5244	76.000054	2
0	5316	77	3
0	5323	77.000054	2
0	5392	78	3
0	5399	78.000054	2
0	5468	79	3
0	5475	79.000054	2
0	5547	80	3
0	5555	80.000054	2
0	5653	81	3
0	5660	81.000054	2
0	5756	82	3
0	5763	82.000054	2
0	5863	83	3
0	5870	83.000054	2
0	5967	84	3
0	5974	84.000054	2
0	6077	85	3
0	6085	85.000054	2
0	6190	86	3
0	6197	86.000054	2
0	6299	87	3
0	6306	87.000054	2
0	6408	88	3
0	6415	88.000054	2
0	6520	89	3
0	6527	89.000054	2
0	6629	90	3
0	6636	90.000054	2
0	6738	91	3
0	6745	91.000054	2
0	6850	92	3
0	6857	92.000054	2
0	6959	93	3
0	6966	93.000054	2
0	7068	94	3
0	7075	94.000054	2
0	7180	95	3
0	7187	95.000054	2
0	7290	96	3
0	7297	96.000054	2
0	7396	97	3
0	7403	97.000054	2
0	7505	98	3
0	7512	98.000054	2
0	7611	99	3
0	7618	99.000054	2
0	7717	100	3
0	7724	100.000054	2
0	7789	100.569036473195	3
0	7796	100.569086473195	2
0	7841	100.569785184367	3
0	7849	100.569819184367	2
0	7900	101	3
0	7907	101.000054	2
0	7985	102	3
0	7992	102.000054	2
0	8070	103	3
0	8077	103.000054	2
0	8172	104	3
0	8179	104.000054	2
0	8272	105	3
0	8279	105.000054	2
0	8372	106	3
0	8379	106.000054	2
0	8476	107	3
0	8483	107.000054	2
0	8577	108	3
0	8584	108.000054	2
0	8677	109	3
0	8684	109.000054	2
0	8910	110	3
0	8918	110.000054	2
0	9017	111	3
0	9024	111.000054	2
0	9123	112	3
0	9130	112.000054	2
0	9356	113	3
0	9363	113.000054	2
0	9462	114	3
0	9469	114.000054	2
0	9568	115	3
0	9576	115.000054	2
0	9800	116	3
0	9807	116.000054	2
0	9906	117	3
0	9913	117.000054	2
0	10012	118	3
0	10019	118.000054	2
0	10138	119	3
0	10145	119.000054	2
0	10262	120	3
0	10269	120.000054	2
0	10386	121	3
0	10393	121.000054	2
0	10513	122	3
0	10520	122.000054	2
0	10638	123	3
0	10645	123.000054	2
0	10765	124	3
0	10772	124.000054	2
0	10902	125	3
0	10909	125.000054	2
0	10950	125.000404810823	3
0	10957	125.000454810823	2
0	11010	125.000653621609	3
0	11019	125.000687621609	2
0	11028	125.000997621609	3
0	11035	125.001051621609	2
0	11184	125.2536331555	3
0	11193	125.2536671555	2
0	11268	126	3
0	11275	126.000054	2
0	11285	126.000328	3
0	11292	126.000382	2
0	11303	126.000476	3
0	11310	126.00053	2
0	11321	126.003024	3
0	11328	126.003078	2
0	11339	126.007352	3
0	11346	126.007406	2
0	11362	126.0252	3
0	11369	126.025254	2
0	11403	126.030528	3
0	11410	126.030582	2
0	11620	127	3
0	11627	127.000054	2
0	11637	127.001088	3
0	11644	127.001142	2
0	11654	127.002896	3
0	11661	127.00295	2
0	11671	127.003404	3
0	11678	127.003458	2
0	11690	127.010152	3
0	11697	127.010206	2
0	11710	127.0148	3
0	11717	127.014854	2
0	11753	127.027808	3
0	11760	127.027862	2
0	12061	128	3
0	12068	128.000054	2
0	12077	128.005828	3
0	12084	128.005882	2
0	12095	128.022696	3
0	12102	128.02275	2
0	12111	128.023364	3
0	12118	128.023418	2
0	12153	128.038232	3
0	12160	128.038286	2
0	12169	128.04568	3
0	12176	128.045734	2
0	12187	128.064768	3
0	12194	128.064822	2
0	12367	129	3
0	12374	129.000054	2
0	12384	129.017188	3
0	12391	129.017242	2
0	12400	129.020036	3
0	12407	129.02009	2
0	12441	129.034324	3
0	12448	129.034378	2
0	12458	129.043972	3
0	12465	129.044026	2
0	12476	129.05652	3
0	12483	129.056574	2
0	12492	129.063128	3
0	12499	129.063182	2
0	12673	130	3
0	12680	130.000054	2
0	12690	130.018668	3
0	12697	130.018722	2
0	12731	130.038196	3
0	12738	130.03825	2
0	12748	130.048724	3
0	12755	130.048778	2
0	12764	130.051852	3
0	12771	130.051906	2
0	12782	130.07194	3
0	12789	130.071994	2
0	12798	130.081608	3
0	12805	130.081662	2
0	12903	131	3
0	12910	131.000054	2
0	13027	132	3
0	13034	132.000054	2
0	13151	133	3
0	13158	133.000054	2
0	13382	134	3
0	13389	134.000054	2
0	13488	135	3
0	13495	135.000054	2
0	13594	136	3
0	13601	136.000054	2
0	13720	137	3
0	13727	137.000054	2
0	13848	138	3
0	13855	138.000054	2
0	13973	139	3
0	13980	139.000054	2
0	14366	140	3
0	14373	140.000054	2
0	14524	141	3
0	14531	141.000054	2
0	14830	142	3
0	14837	142.000054	2
0	15156	143	3
0	15163	143.000054	2
0	15480	144	3
0	15487	144.000054	2
0	15704	145	3
0	15711	145.000054	2
0	15832	146	3
0	15839	146.000054	2
0	16154	147	3
0	16161	147.000054	2
0	16478	148	3
0	16485	148.000054	2
0	16673	148.568960513584	3
0	16681	148.568994513584	2
0	16829	149	3
0	16836	149.000054	2
0	17138	150	3
0	17145	150.000054	2
0	17447	151	3
0	17454	151.000054	2
0	17679	152	3
0	17686	152.000054	2
0	17809	153	3
0	17816	153.000054	2
0	17945	154	3
0	17952	154.000054	2
0	17994	154.003768792559	3
0	18003	154.003802792559	2
0	18015	154.016132792559	3
0	18022	154.016186792559	2
0	18108	154.251069146799	3
0	18117	154.251103146799	2
0	18190	155	3
0	18197	155.000054	2
0	18208	155.000948	3
0	18215	155.001002	2
0	18226	155.003036	3
0	18233	155.00309	2
0	18244	155.006484	3
0	18251	155.006538	2
0	18262	155.009972	3
0	18269	155.010026	2
0	18308	155.02868	3
0	18315	155.028734	2
0	18326	155.034608	3
0	18333	155.034662	2
0	18531	156	3
0	18539	156.000054	2
0	18550	156.000628	3
0	18557	156.000682	2
0	18568	156.002896	3
0	18575	156.00295	2
0	18586	156.003604	3
0	18593	156.003658	2
0	18604	156.006672	3
0	18611	156.006726	2
0	18623	156.01026	3
0	18630	156.010314	2
0	18644	156.016428	3
0	18651	156.016482	2
0	18873	157	3
0	18880	157.000054	2
0	18891	157.000548	3
0	18898	157.000602	2
0	18911	157.013296	3
0	18918	157.01335	2
0	18929	157.023124	3
0	18936	157.023178	2
0	18948	157.025372	3
0	18955	157.025426	2
0	18989	157.03002	3
0	18996	157.030074	2
0	19007	157.032528	3
0	19014	157.032582	2
0	19217	158	3
0	19224	158.000054	2
0	19235	158.006968	3
0	19242	158.007022	2
0	19254	158.014516	3
0	19261	158.01457	2
0	19297	158.031044	3
0	19304	158.031098	2
0	19317	158.044572	3
0	19324	158.044626	2
0	19336	158.05726	3
0	19343	158.057314	2
0	19354	158.065188	3
0	19361	158.065242	2
0	19558	159	3
0	19566	159.000054	2
0	19577	159.007048	3
0	19584	159.007102	2
0	19596	159.011636	3
0	19603	159.01169	2
0	19614	159.016504	3
0	19621	159.016558	2
0	19632	159.020912	3
0	19639	159.020966	2
0	19676	159.0333	3
0	19683	159.033354	2
0	19696	159.051888	3
0	19703	159.051942	2
0	19963	160	3
0	19971	160.000054	2
0	20159	160.568960528591	3
0	20167	160.568994528591	2
0	20315	161	3
0	20322	161.000054	2
0	20621	162	3
0	20628	162.000054	2
0	20927	163	3
0	20934	163.000054	2
0	21253	164	3
0	21260	164.000054	2
0	21478	165	3
0	21485	165.000054	2
0	21608	166	3
0	21615	166.000054	2
0	21856	167	3
0	21863	167.000054	2
0	21965	168	3
0	21972	168.000054	2
0	22074	169	3
0	22081	169.000054	2
0	22206	170	3
0	22213	170.000054	2
0	22338	171	3
0	22345	171.000054	2
0	22469	172	3
0	22476	172.000054	2
0	22602	173	3
0	22609	173.000054	2
0	22732	174	3
0	22739	174.000054	2
0	22862	175	3
0	22869	175.000054	2
0	22995	176	3
0	23002	176.000054	2
0	23105	176.03324480351	3
0	23114	176.03327880351	2
0	23122	176.03570880351	3
0	23129	176.03576280351	2
0	23161	176.040637605609	3
0	23168	176.040691605609	2
0	23226	176.251069140844	3
0	23235	176.251103140844	2
0	23303	177	3
0	23310	177.000054	2
0	23320	177.000348	3
0	23327	177.000402	2
0	23337	177.001256	3
0	23344	177.00131	2
0	23598	178	3
0	23605	178.000054	2
0	23614	178.000548	3
0	23621	178.000602	2
0	23630	178.002976	3
0	23637	178.00303	2
0	23646	178.003304	3
0	23653	178.003358	2
0	23666	178.013512	3
0	23673	178.013566	2
0	23682	178.0163	3
0	23689	178.016354	2
0	23723	178.035348	3
0	23730	178.035402	2
0	24059	179	3
0	24066	179.000054	2
0	24075	179.001288	3
0	24082	179.001342	2
0	24091	179.001776	3
0	24098	179.00183	2
0	24107	179.003944	3
0	24114	179.003998	2
0	24126	179.013552	3
0	24133	179.013606	2
0	24143	179.01858	3
0	24150	179.018634	2
0	24183	179.028108	3
0	24190	179.028162	2
0	24379	180	3
0	24386	180.000054	2
0	24396	180.017748	3
0	24403	180.017802	2
0	24412	180.018116	3
0	24419	180.01817	2
0	24454	180.038124	3
0	24461	180.038178	2
0	24470	180.040212	3
0	24477	180.040266	2
0	24486	180.04738	3
0	24493	180.047434	2
0	24504	180.053548	3
0	24511	180.053602	2
0	24699	181	3
0	24706	181.000054	2
0	24716	181.015568	3
0	24723	181.015622	2
0	24756	181.032876	3
0	24763	181.03293	2
0	24774	181.045704	3
0	24781	181.045758	2
0	24790	181.054112	3
0	24797	181.054166	2
0	24808	181.06966	3
0	24815	181.069714	2
0	24825	181.082708	3
0	24832	181.082762	2
0	24938	182	3
0	24945	182.000054	2
0	25068	183	3
0	25075	183.000054	2
0	25201	184	3
0	25208	184.000054	2
0	25449	185	3
0	25456	185.000054	2
0	25558	186	3
0	25565	186.000054	2
0	25667	187	3
0	25674	187.000054	2
0	25908	188	3
0	25915	188.000054	2
0	26016	189	3
0	26023	189.000054	2
0	26122	190	3
0	26129	190.000054	2
0	26248	191	3
0	26255	191.000054	2
0	26372	192	3
0	26379	192.000054	2
0	26502	193	3
0	26509	193.000054	2
0	26635	194	3
0	26642	194.000054	2
0	26765	195	3
0	26772	195.000054	2
0	26895	196	3
0	26902	196.000054	2
0	27028	197	3
0	27035	197.000054	2
0	27158	198	3
0	27165	198.000054	2
0	27410	199	3
0	27417	199.000054	2
0	27525	199.568960338535	3
0	27533	199.568994338535	2
0	27681	200	3
0	27688	200.000054	2
0	27990	201	3
0	27997	201.000054	2
0	28299	202	3
0	28306	202.000054	2
0	28631	203	3
0	28638	203.000054	2
0	28961	204	3
0	28968	204.000054	2
0	29092	205	3
0	29099	205.000054	2
0	29187	205.568960392818	3
0	29195	205.568994392818	2
0	29243	206	3
0	29250	206.000054	2
0	29352	207	3
0	29359	207.000054	2
0	29461	208	3
0	29468	208.000054	2
0	29593	209	3
0	29601	209.000054	2
0	29725	210	3
0	29732	210.000054	2
0	29853	211	3
0	29860	211.000054	2
0	29981	212	3
0	29988	212.000054	2
0	30105	213	3
0	30112	213.000054	2
0	30229	214	3
0	30237	214.000054	2
0	30359	215	3
0	30366	215.000054	2
0	30485	216	3
0	30492	216.000054	2
0	30715	217	3
0	30722	217.000054	2
0	30876	218	3
0	30884	218.000054	2
0	31201	219	3
0	31209	219.000054	2
0	31527	220	3
0	31534	220.000054	2
0	31958	221	3
0	31965	221.000054	2
0	32164	222	3
0	32171	222.000054	2
0	32271	223	3
0	32278	223.000054	2
0	32317	223.014808723952	3
0	32325	223.014842723952	2
0	32333	223.018992723952	3
0	32340	223.019046723952	2
0	32424	223.251069107382	3
0	32432	223.251103107382	2
0	32499	224	3
0	32506	224.000054	2
0	32534	224.000988808289	3
0	32541	224.001042808289	2
0	32773	225	3
0	32780	225.000054	2
0	32789	225.000188	3
0	32796	225.000242	2
0	32805	225.000736	3
0	32812	225.00079	2
0	32821	225.003504	3
0	32828	225.003558	2
0	32837	225.005272	3
0	32844	225.005326	2
0	32858	225.02422	3
0	32865	225.024274	2
0	32874	225.025128	3
0	32881	225.025182	2
0	33097	226	3
0	33104	226.000054	2
0	33113	226.000848	3
0	33120	226.000902	2
0	33129	226.001596	3
0	33136	226.00165	2
0	33145	226.001884	3
0	33152	226.001938	2
0	33163	226.011472	3
0	33170	226.011526	2
0	33182	226.02362	3
0	33189	226.023674	2
0	33221	226.028548	3
0	33228	226.028602	2
0	33424	227	3
0	33431	227.000054	2
0	33440	227.003348	3
0	33447	227.003402	2
0	33457	227.010776	3
0	33464	227.01083	2
0	33474	227.016824	3
0	33481	227.016878	2
0	33515	227.034652	3
0	33522	227.034706	2
0	33532	227.04244	3
0	33539	227.042494	2
0	33549	227.049928	3
0	33556	227.049982	2
0	33748	228	3
0	33755	228.000054	2
0	33765	228.012268	3
0	33772	228.012322	2
0	33805	228.029456	3
0	33812	228.02951	2
0	33823	228.042704	3
0	33830	228.042758	2
0	33839	228.046292	3
0	33846	228.046346	2
0	33857	228.05834	3
0	33864	228.058394	2
0	33873	228.060868	3
0	33880	228.060922	2
0	33976	229	3
0	33983	229.000054	2
0	34103	230	3
0	34110	230.000054	2
0	34315	231	3
0	34322	231.000054	2
0	34475	232	3
0	34482	232.000054	2
0	34802	233	3
0	34809	233.000054	2
0	35138	234	3
0	35145	234.000054	2
0	35481	235	3
0	35488	235.000054	2
0	35828	236	3
0	35835	236.000054	2
0	36062	237	3
0	36069	237.000054	2
0	36226	238	3
0	36233	238.000054	2
0	36339	238.570116454177	3
0	36346	238.570166454177	2
0	36391	238.570485127216	3
0	36399	238.570519127216	2
0	36467	239	3
0	36474	239.000054	2
0	36711	240	3
0	36718	240.000054	2
0	37020	241	3
0	37027	241.000054	2
0	37214	241.568960387014	3
0	37222	241.568994387014	2
0	37270	242	3
0	37277	242.000054	2
0	37381	243	3
0	37388	243.000054	2
0	37491	244	3
0	37498	244.000054	2
0	37623	245	3
0	37630	245.000054	2
0	37753	246	3
0	37760	246.000054	2
0	37883	247	3
0	37890	247.000054	2
0	37979	247.568960344031	3
0	37988	247.568994344031	2
0	38036	248	3
0	38043	248.000054	2
0	38146	249	3
0	38153	249.000054	2
0	38255	250	3
0	38262	250.000054	2
0	38349	250.568960412334	3
0	38357	250.568994412334	2
0	38405	251	3
0	38412	251.000054	2
0	38514	252	3
0	38521	252.000054	2
0	38625	253	3
0	38632	253.000054	2
0	38720	253.568960498723	3
0	38728	253.568994498723	2
0	38863	254	3
0	38870	254.000054	2
0	39064	255	3
0	39071	255.000054	2
0	39370	256	3
0	39378	256.000054	2
0	39697	257	3
0	39704	257.000054	2
0	40021	258	3
0	40028	258.000054	2
0	40345	259	3
0	40352	259.000054	2
0	40474	260	3
0	40481	260.000054	2
0	40598	261	3
0	40605	261.000054	2
0	40722	262	3
0	40729	262.000054	2
0	40953	263	3
0	40960	263.000054	2
0	41059	264	3
0	41066	264.000054	2
0	41170	265	3
0	41177	265.000054	2
0	41297	266	3
0	41304	266.000054	2
0	41421	267	3
0	41428	267.000054	2
0	41545	268	3
0	41552	268.000054	2
0	41672	269	3
0	41679	269.000054	2
0	41796	270	3
0	41803	270.000054	2
0	41920	271	3
0	41927	271.000054	2
0	42047	272	3
0	42054	272.000054	2
0	42171	273	3
0	42178	273.000054	2
0	42427	274	3
0	42434	274.000054	2
0	42559	275	3
0	42566	275.000054	2
0	42693	276	3
0	42700	276.000054	2
0	42741	276.000964768569	3
0	42748	276.001014768569	2
0	42801	276.001773537037	3
0	42810	276.001807537037	2
0	42819	276.002197537037	3
0	42826	276.002251537037	2
0	42918	276.251069133431	3
0	42927	276.251103133431	2
0	42999	277	3
0	43006	277.000054	2
0	43016	277.000388	3
0	43023	277.000442	2
0	43033	277.001536	3
0	43040	277.00159	2
0	43050	277.004724	3
0	43057	277.004778	2
0	43068	277.008772	3
0	43075	277.008826	2
0	43091	277.0193	3
0	43098	277.019354	2
0	43108	277.021288	3
0	43115	277.021342	2
0	43352	278	3
0	43359	278.000054	2
0	43368	278.001148	3
0	43375	278.001202	2
0	43384	278.002596	3
0	43391	278.00265	2
0	43400	278.006164	3
0	43407	278.006218	2
0	43416	278.007952	3
0	43423	278.008006	2
0	43436	278.01734	3
0	43443	278.017394	2
0	43478	278.037868	3
0	43485	278.037922	2
0	43689	279	3
0	43696	279.000054	2
0	43706	279.016468	3
0	43713	279.016522	2
0	43746	279.028336	3
0	43753	279.02839	2
0	43764	279.040584	3
0	43771	279.040638	2
0	43781	279.051652	3
0	43788	279.051706	2
0	43798	279.06608	3
0	43805	279.066134	2
0	43814	279.075428	3
0	43821	279.075482	2
0	44014	280	3
0	44021	280.000054	2
0	44031	280.010148	3
0	44038	280.010202	2
0	44071	280.029036	3
0	44078	280.02909	2
0	44087	280.031004	3
0	44094	280.031058	2
0	44106	280.044012	3
0	44113	280.044066	2
0	44122	280.0496	3
0	44129	280.049654	2
0	44139	280.056128	3
0	44146	280.056182	2
0	44445	281	3
0	44452	281.000054	2
0	44461	281.001588	3
0	44468	281.001642	2
0	44479	281.016316	3
0	44486	281.01637	2
0	44495	281.022344	3
0	44502	281.022398	2
0	44536	281.033772	3
0	44543	281.033826	2
0	44553	281.0408	3
0	44560	281.040854	2
0	44570	281.047328	3
0	44577	281.047382	2
0	44655	282	3
0	44662	282.000054	2
0	44761	283	3
0	44768	283.000054	2
0	44887	284	3
0	44894	284.000054	2
0	45011	285	3
0	45018	285.000054	2
0	45135	286	3
0	45142	286.000054	2
0	45366	287	3
0	45374	287.000054	2
0	45476	288	3
0	45483	288.000054	2
0	45582	289	3
0	45589	289.000054	2
0	45708	290	3
0	45715	290.000054	2
0	45832	291	3
0	45839	291.000054	2
0	45956	292	3
0	45963	292.000054	2
0	46083	293	3
0	46090	293.000054	2
0	46208	294	3
0	46215	294.000054	2
0	46494	295	3
0	46501	295.000054	2
0	46842	296	3
0	46849	296.000054	2
0	47148	297	3
0	47155	297.000054	2
0	47469	298	3
0	47476	298.000054	2
0	47818	299	3
0	47825	299.000054	2
0	48196	300	3
0	48203	300.000054	2
0	48362	301	3
0	48369	301.000054	2
0	48644	302	3
0	48651	302.000054	2
0	48787	303	3
0	48794	303.000054	2
0	49096	304	3
0	49103	304.000054	2
0	49290	304.568960351712	3
0	49298	304.568994351712	2
0	49447	305	3
0	49454	305.000054	2
0	49556	306	3
0	49563	306.000054	2
0	49665	307	3
0	49672	307.000054	2
0	49797	308	3
0	49804	308.000054	2
0	49845	308.003208773798	3
0	49853	308.003242773798	2
0	49863	308.012612773798	3
0	49870	308.012666773798	2
0	49956	308.25106912969	3
0	49964	308.25110312969	2
0	50033	309	3
0	50040	309.000054	2
0	50051	309.000208	3
0	50058	309.000262	2
0	50069	309.001416	3
0	50076	309.00147	2
0	50087	309.002304	3
0	50094	309.002358	2
0	50105	309.002592	3
0	50112	309.002646	2
0	50124	309.01026	3
0	50132	309.010314	2
0	50146	309.017128	3
0	50153	309.017182	2
0	50374	310	3
0	50381	310.000054	2
0	50392	310.000428	3
0	50399	310.000482	2
0	50410	310.002196	3
0	50417	310.00225	2
0	50428	310.007004	3
0	50435	310.007058	2
0	50446	310.009352	3
0	50453	310.009406	2
0	50469	310.0219	3
0	50476	310.021954	2
0	50487	310.022648	3
0	50494	310.022702	2
0	50718	311	3
0	50725	311.000054	2
0	50737	311.015848	3
0	50744	311.015902	2
0	50755	311.024256	3
0	50762	311.02431	2
0	50799	311.036464	3
0	50806	311.036518	2
0	50818	311.056812	3
0	50825	311.056866	2
0	50837	311.07718	3
0	50844	311.077234	2
0	50855	311.081888	3
0	50862	311.081942	2
0	51060	312	3
0	51067	312.000054	2
0	51078	312.003008	3
0	51085	312.003062	2
0	51098	312.023176	3
0	51105	312.02323	2
0	51141	312.037844	3
0	51148	312.037898	2
0	51160	312.048572	3
0	51167	312.048626	2
0	51178	312.05344	3
0	51185	312.053494	2
0	51198	312.072568	3
0	51205	312.072622	2
0	51403	313	3
0	51410	313.000054	2
0	51421	313.001088	3
0	51428	313.001142	2
0	51441	313.016676	3
0	51448	313.01673	2
0	51483	313.034944	3
0	51490	313.034998	2
0	51502	313.040172	3
0	51509	313.040226	2
0	51522	313.05324	3
0	51529	313.053294	2
0	51540	313.060868	3
0	51547	313.060922	2
0	51872	314	3
0	51879	314.000054	2
0	52098	315	3
0	52105	315.000054	2
0	52407	316	3
0	52414	316.000054	2
0	52739	317	3
0	52746	317.000054	2
0	53069	318	3
0	53076	318.000054	2
0	53297	319	3
0	53304	319.000054	2
0	53424	320	3
0	53431	320.000054	2
0	53548	321	3
0	53555	321.000054	2
0	53673	322	3
0	53680	322.000054	2
0	53920	323	3
0	53927	323.000054	2
1	0	0	0
2	0	0	0
2	0	0	0
2	0	0	2
2	2303	39.251004747152	3
2	2312	39.251058747152	2
2	2386	40.251004747152	3
2	2393	40.251058747152	2
2	2471	41.251004747152	3
2	2478	41.251058747152	2
2	2553	42.251004747152	3
2	2560	42.251058747152	2
2	2636	43.251004747152	3
2	2643	43.251058747152	2
2	2721	44.251004747152	3
2	2728	44.251058747152	2
2	2805	45.251004747152	3
2	2812	45.251058747152	2
2	2887	46.251004747152	3
2	2894	46.251058747152	2
2	2972	47.251004747152	3
2	2979	47.251058747152	2
2	3054	48.251004747152	3
2	3061	48.251058747152	2
2	3136	49.251004747152	3
2	3143	49.251058747152	2
2	3221	50.251004747152	3
2	3228	50.251058747152	2
2	3303	51.251004747152	3
2	3310	51.251058747152	2
2	3385	52.251004747152	3
2	3392	52.251058747152	2
2	3470	53.251004747152	3
2	3477	53.251058747152	2
2	3552	54.251004747152	3
2	3559	54.251058747152	2
2	3634	55.251004747152	3
2	3641	55.251058747152	2
2	3719	56.251004747152	3
2	3726	56.251058747152	2
2	3799	57.251004747152	3
2	3806	57.251058747152	2
2	3875	58.251004747152	3
2	3882	58.251058747152	2
2	3954	59.251004747152	3
2	3961	59.251058747152	2
2	4030	60.251004747152	3
2	4037	60.251058747152	2
2	4106	61.251004747152	3
2	4113	61.251058747152	2
2	4185	62.251004747152	3
2	4192	62.251058747152	2
2	4261	63.251004747152	3
2	4268	63.251058747152	2
2	4337	64.251004747152	3
2	4344	64.251058747152	2
2	4416	65.251004747152	3
2	4423	65.251058747152	2
2	4492	66.251004747152	3
2	4500	66.251058747152	2
2	4569	67.251004747152	3
2	4576	67.251058747152	2
2	4649	68.251004747152	3
2	4656	68.251058747152	2
2	4725	69.251004747152	3
2	4732	69.251058747152	2
2	4801	70.251004747152	3
2	4808	70.251058747152	2
2	4880	71.251004747152	3
2	4887	71.251058747152	2
2	4956	72.251004747152	3
2	4963	72.251058747152	2
2	5032	73.251004747152	3
2	5039	73.251058747152	2
2	5111	74.251004747152	3
2	5118	74.251058747152	2
2	5187	75.251004747152	3
2	5194	75.251058747152	2
2	5263	76.251004747152	3
2	5270	76.251058747152	2
2	5342	77.251004747152	3
2	5349	77.251058747152	2
2	5418	78.251004747152	3
2	5425	78.251058747152	2
2	5494	79.251004747152	3
2	5501	79.251058747152	2
2	5574	80.251004747152	3
2	5581	80.251058747152	2
2	5679	81.251004747152	3
2	5686	81.251058747152	2
2	5782	82.251004747152	3
2	5789	82.251058747152	2
2	5889	83.251004747152	3
2	5896	83.251058747152	2
2	5996	84.251004747152	3
2	6003	84.251058747152	2
2	6107	85.251004747152	3
2	6114	85.251058747152	2
2	6219	86.251004747152	3
2	6226	86.251058747152	2
2	6328	87.251004747152	3
2	6335	87.251058747152	2
2	6437	88.251004747152	3
2	6444	88.251058747152	2
2	6549	89.251004747152	3
2	6556	89.251058747152	2
2	6658	90.251004747152	3
2	6665	90.251058747152	2
2	6767	91.251004747152	3
2	6774	91.251058747152	2
2	6879	92.251004747152	3
2	6886	92.251058747152	2
2	6988	93.251004747152	3
2	6995	93.251058747152	2
2	7097	94.251004747152	3
2	7104	94.251058747152	2
2	7209	95.251004747152	3
2	7216	95.251058747152	2
2	7319	96.251004747152	3
2	7326	96.251058747152	2
2	7425	97.251004747152	3
2	7432	97.251058747152	2
2	7534	98.251004747152	3
2	7541	98.251058747152	2
2	7640	99.251004747152	3
2	7647	99.251058747152	2
2	7746	100.251004747152	3
2	7753	100.251058747152	2
2	7929	101.251004747152	3
2	7936	101.251058747152	2
2	8014	102.251004747152	3
2	8021	102.251058747152	2
2	8096	103.251004747152	3
2	8103	103.251058747152	2
2	8198	104.251004747152	3
2	8205	104.251058747152	2
2	8298	105.251004747152	3
2	8305	105.251058747152	2
2	8398	106.251004747152	3
2	8405	106.251058747152	2
2	8502	107.251004747152	3
2	8510	107.251058747152	2
2	8603	108.251004747152	3
2	8610	108.251058747152	2
2	8729	109.251004747152	3
2	8736	109.251058747152	2
2	8961	110.251004747152	3
2	8968	110.251058747152	2
2	9067	111.251004747152	3
2	9074	111.251058747152	2
2	9173	112.251004747152	3
2	9180	112.251058747152	2
2	9406	113.251004747152	3
2	9413	113.251058747152	2
2	9512	114.251004747152	3
2	9519	114.251058747152	2
2	9620	115.251004747152	3
2	9627	115.251058747152	2
2	9850	116.251004747152	3
2	9857	116.251058747152	2
2	9956	117.251004747152	3
2	9963	117.251058747152	2
2	10062	118.251004747152	3
2	10069	118.251058747152	2
2	10188	119.251004747152	3
2	10195	119.251058747152	2
2	10312	120.251004747152	3
2	10319	120.251058747152	2
2	10436	121.251004747152	3
2	10443	121.251058747152	2
2	10563	122.251004747152	3
2	10571	122.251058747152	2
2	10688	123.251004747152	3
2	10695	123.251058747152	2
2	10816	124.251004747152	3
2	10823	124.251058747152	2
2	10928	125.000164405415	3
2	10935	125.000214405415	2
2	10969	125.00046521622	3
2	10978	125.00049921622	2
2	10987	125.00058921622	3
2	10994	125.00064321622	2
2	11049	125.001062026979	3
2	11058	125.001096026979	2
2	11106	125.251004747152	3
2	11113	125.251058747152	2
[...]
245	70219	290.4	0
245	70219	290.5	0
245	70219	290.6	0
245	70219	290.7	0
245	70219	290.8	0
245	70219	290.9	0
245	70219	291	0
245	70219	291.1	0
245	70219	291.2	0
245	70219	291.3	0
245	70219	291.4	0
245	70219	291.5	0
245	70219	291.6	0
245	70219	291.7	0
245	70219	291.8	0
245	70219	291.9	0
245	70219	292	0
245	70219	292.1	0
245	70219	292.2	0
245	70219	292.3	0
245	70219	292.4	0
245	70219	292.5	0
245	70219	292.6	0
245	70219	292.7	0
245	70219	292.8	0
245	70219	292.9	0
245	70219	293	0
245	70219	293.1	0
245	70219	293.2	0
245	70219	293.3	0
245	70219	293.4	0
245	70219	293.5	0
245	70219	293.6	0
245	70219	293.7	0
245	70219	293.8	0
245	70219	293.9	0
245	70219	294	0
245	70219	294.1	0
245	70219	294.2	0
245	70219	294.3	0
245	70219	294.4	0
245	70219	294.5	0
245	70219	294.6	0
245	70219	294.7	0
245	70219	294.8	0
245	70219	294.9	0
245	70219	295	0
245	70219	295.1	0
245	70219	295.2	0
245	70219	295.3	0
245	70219	295.4	0
245	70219	295.5	0
245	70219	295.6	0
245	70219	295.7	0
245	70219	295.8	0
245	70219	295.9	0
245	70219	296	0
245	70219	296.1	0
245	70219	296.2	0
245	70219	296.3	0
245	70219	296.4	0
245	70219	296.5	0
245	70219	296.6	0
245	70219	296.7	0
245	70219	296.8	0
245	70219	296.9	0
245	70219	297	0
245	70219	297.1	0
245	70219	297.2	0
245	70219	297.3	0
245	70219	297.4	0
245	70219	297.5	0
245	70219	297.6	0
245	70219	297.7	0
245	70219	297.8	0
245	70219	297.9	0
245	70219	298	0
245	70219	298.1	0
245	70219	298.2	0
245	70219	298.3	0
245	70219	298.4	0
245	70219	298.5	0
245	70219	298.6	0
245	70219	298.7	0
245	70219	298.8	0
245	70219	298.9	0
245	70219	299	0
245	70219	299.1	0
245	70219	299.2	0
245	70219	299.3	0
245	70219	299.4	0
245	70219	299.5	0
245	70219	299.6	0
245	70219	299.7	0
245	70219	299.8	0
245	70219	299.9	0
245	70219	300	0
245	70219	300.1	0
245	70219	300.2	0
245	70219	300.3	0
245	70219	300.4	0
245	70219	300.5	0
245	70219	300.6	0
245	70219	300.7	0
245	70219	300.8	0
245	70219	300.9	0
245	70219	301	0
245	70219	301.1	0
245	70219	301.2	0
245	70219	301.3	0
245	70219	301.4	0
245	70219	301.5	0
245	70219	301.6	0
245	70219	301.7	0
245	70219	301.8	0
245	70219	301.9	0
245	70219	302	0
245	70219	302.1	0
245	70219	302.2	0
245	70219	302.3	0
245	70219	302.4	0
245	70219	302.5	0
245	70219	302.6	0
245	70219	302.7	0
245	70219	302.8	0
245	70219	302.9	0
245	70219	303	0
245	70219	303.1	0
245	70219	303.2	0
245	70219	303.3	0
245	70219	303.4	0
245	70219	303.5	0
245	70219	303.6	0
245	70219	303.7	0
245	70219	303.8	0
245	70219	303.9	0
245	70219	304	0
245	70219	304.1	0
245	70219	304.2	0
245	70219	304.3	0
245	70219	304.4	0
245	70219	304.5	0
245	70219	304.6	0
245	70219	304.7	0
245	70219	304.8	0
245	70219	304.9	0
245	70219	305	0
245	70219	305.1	0
245	70219	305.2	0
245	70219	305.3	0
245	70219	305.4	0
245	70219	305.5	0
245	70219	305.6	0
245	70219	305.7	0
245	70219	305.8	0
245	70219	305.9	0
245	70219	306	0
245	70219	306.1	0
245	70219	306.2	0
245	70219	306.3	0
245	70219	306.4	0
245	70219	306.5	0
245	70219	306.6	0
245	70219	306.7	0
245	70219	306.8	0
245	70219	306.9	0
245	70219	307	0
245	70219	307.1	0
245	70219	307.2	0
245	70219	307.3	0
245	70219	307.4	0
245	70219	307.5	0
245	70219	307.6	0
245	70219	307.7	0
245	70219	307.8	0
245	70219	307.9	0
245	70219	308	0
245	70219	308.1	0
245	70219	308.2	0
245	70219	308.3	0
245	70219	308.4	0
245	70219	308.5	0
245	70219	308.6	0
245	70219	308.7	0
245	70219	308.8	0
245	70219	308.9	0
245	70219	309	0
245	70219	309.1	0
245	70219	309.2	0
245	70219	309.3	0
245	70219	309.4	0
245	70219	309.5	0
245	70219	309.6	0
245	70219	309.7	0
245	70219	309.8	0
245	70219	309.9	0
245	70219	310	0
245	70219	310.1	0
245	70219	310.2	0
245	70219	310.3	0
245	70219	310.4	0
245	70219	310.5	0
245	70219	310.6	0
245	70219	310.7	0
245	70219	310.8	0
245	70219	310.9	0
245	70219	311	0
245	70219	311.1	0
245	70219	311.2	0
245	70219	311.3	0
245	70219	311.4	0
245	70219	311.5	0
245	70219	311.6	0
245	70219	311.7	0
245	70219	311.8	0
245	70219	311.9	0
245	70219	312	0
245	70219	312.1	0
245	70219	312.2	0
245	70219	312.3	0
245	70219	312.4	0
245	70219	312.5	0
245	70219	312.6	0
245	70219	312.7	0
245	70219	312.8	0
245	70219	312.9	0
245	70219	313	0
245	70219	313.1	0
245	70219	313.2	0
245	70219	313.3	0
245	70219	313.4	0
245	70219	313.5	0
245	70219	313.6	0
245	70219	313.7	0
245	70219	313.8	0
245	70219	313.9	0
245	70219	314	0
245	70219	314.1	0
245	70219	314.2	0
245	70219	314.3	0
245	70219	314.4	0
245	70219	314.5	0
245	70219	314.6	0
245	70219	314.7	0
245	70219	314.8	0
245	70219	314.9	0
245	70219	315	0
245	70219	315.1	0
245	70219	315.2	0
245	70219	315.3	0
245	70219	315.4	0
245	70219	315.5	0
245	70219	315.6	0
245	70219	315.7	0
245	70219	315.8	0
245	70219	315.9	0
245	70219	316	0
245	70219	316.1	0
245	70219	316.2	0
245	70219	316.3	0
245	70219	316.4	0
245	70219	316.5	0
245	70219	316.6	0
245	70219	316.7	0
245	70219	316.8	0
245	70219	316.9	0
245	70219	317	0
245	70219	317.1	0
245	70219	317.2	0
245	70219	317.3	0
245	70219	317.4	0
245	70219	317.5	0
245	70219	317.6	0
245	70219	317.7	0
245	70219	317.8	0
245	70219	317.9	0
245	70219	318	0
245	70219	318.1	0
245	70219	318.2	0
245	70219	318.3	0
245	70219	318.4	0
245	70219	318.5	0
245	70219	318.6	0
245	70219	318.7	0
245	70219	318.8	0
245	70219	318.9	0
245	70219	319	0
245	70219	319.1	0
245	70219	319.2	0
245	70219	319.3	0
245	70219	319.4	0
245	70219	319.5	0
245	70219	319.6	0
245	70219	319.7	0
245	70219	319.8	0
245	70219	319.9	0
245	70219	320	0
245	70219	320.1	0
245	70219	320.2	0
245	70219	320.3	0
245	70219	320.4	0
245	70219	320.5	0
245	70219	320.6	0
245	70219	320.7	0
245	70219	320.8	0
245	70219	320.9	0
245	70219	321	0
245	70219	321.1	0
245	70219	321.2	0
245	70219	321.3	0
245	70219	321.4	0
245	70219	321.5	0
245	70219	321.6	0
245	70219	321.7	0
245	70219	321.8	0
245	70219	321.9	0
245	70219	322	0
245	70219	322.1	0
245	70219	322.2	0
245	70219	322.3	0
245	70219	322.4	0
245	70219	322.5	0
245	70219	322.6	0
245	70219	322.7	0
245	70219	322.8	0
245	70219	322.9	0
245	70219	323	0
245	70219	323.1	0
245	70219	323.2	0
245	70219	323.3	0
245	70219	323.4	0
245	70219	323.5	0
245	70219	323.6	0
245	70219	323.7	0
245	70219	323.8	0
245	70219	323.9	0
245	70219	324	0
245	70219	324.1	0
245	70219	324.2	0
245	70219	324.3	0
245	70219	324.4	0
245	70219	324.5	0
245	70219	324.6	0
245	70219	324.7	0
245	70219	324.8	0
245	70219	324.9	0
245	70219	325	0
245	70219	325.1	0
245	70219	325.2	0
245	70219	325.3	0
245	70219	325.4	0
245	70219	325.5	0
245	70219	325.6	0
245	70219	325.7	0
245	70219	325.8	0
245	70219	325.9	0
245	70219	326	0
245	70219	326.1	0
245	70219	326.2	0
245	70219	326.3	0
245	70219	326.4	0
245	70219	326.5	0
245	70219	326.6	0
245	70219	326.7	0
245	70219	326.8	0
245	70219	326.9	0
245	70219	327	0
245	70219	327.1	0
245	70219	327.2	0
245	70219	327.3	0
245	70219	327.4	0
245	70219	327.5	0
245	70219	327.6	0
245	70219	327.7	0
245	70219	327.8	0
245	70219	327.9	0
245	70219	328	0
245	70219	328.1	0
245	70219	328.2	0
245	70219	328.3	0
245	70219	328.4	0
245	70219	328.5	0
245	70219	328.6	0
245	70219	328.7	0
245	70219	328.8	0
245	70219	328.9	0
245	70219	329	0
245	70219	329.1	0
245	70219	329.2	0
245	70219	329.3	0
245	70219	329.4	0
245	70219	329.5	0
245	70219	329.6	0
245	70219	329.7	0
245	70219	329.8	0
245	70219	329.9	0
245	70219	330	0
245	70219	330.1	0
245	70219	330.2	0
245	70219	330.3	0
245	70219	330.4	0
245	70219	330.5	0
245	70219	330.6	0
245	70219	330.7	0
245	70219	330.8	0
245	70219	330.9	0
245	70219	331	0
245	70219	331.1	0
245	70219	331.2	0
245	70219	331.3	0
245	70219	331.4	0
245	70219	331.5	0
245	70219	331.6	0
245	70219	331.7	0
245	70219	331.8	0
245	70219	331.9	0
245	70219	332	0
245	70219	332.1	0
245	70219	332.2	0
245	70219	332.3	0
245	70219	332.4	0
245	70219	332.5	0
245	70219	332.6	0
245	70219	332.7	0
245	70219	332.8	0
245	70219	332.9	0
245	70219	333	0
245	70219	333.1	0
245	70219	333.2	0
245	70219	333.3	0
245	70219	333.4	0
245	70219	333.5	0
245	70219	333.6	0
245	70219	333.7	0
245	70219	333.8	0
245	70219	333.9	0
245	70219	334	0
245	70219	334.1	0
245	70219	334.2	0
245	70219	334.3	0
245	70219	334.4	0
245	70219	334.5	0
245	70219	334.6	0
245	70219	334.7	0
245	70219	334.8	0
245	70219	334.9	0
245	70219	335	0
245	70219	335.1	0
245	70219	335.2	0
245	70219	335.3	0
245	70219	335.4	0
245	70219	335.5	0
245	70219	335.6	0
245	70219	335.7	0
245	70219	335.8	0
245	70219	335.9	0
245	70219	336	0
245	70219	336.1	0
245	70219	336.2	0
245	70219	336.3	0
245	70219	336.4	0
245	70219	336.5	0
245	70219	336.6	0
245	70219	336.7	0
245	70219	336.8	0
245	70219	336.9	0
245	70219	337	0
245	70219	337.1	0
245	70219	337.2	0
245	70219	337.3	0
245	70219	337.4	0
245	70219	337.5	0
245	70219	337.6	0
245	70219	337.7	0
245	70219	337.8	0
245	70219	337.9	0
245	70219	338	0
245	70219	338.1	0
245	70219	338.2	0
245	70219	338.3	0
245	70219	338.4	0
245	70219	338.5	0
245	70219	338.6	0
245	70219	338.7	0
245	70219	338.8	0
245	70219	338.9	0
245	70219	339	0
245	70219	339.1	0
245	70219	339.2	0
245	70219	339.3	0
245	70219	339.4	0
245	70219	339.5	0
245	70219	339.6	0
245	70219	339.7	0
245	70219	339.8	0
245	70219	339.9	0
245	70219	340	0
245	70219	340.1	0
245	70219	340.2	0
245	70219	340.3	0
245	70219	340.4	0
245	70219	340.5	0
245	70219	340.6	0
245	70219	340.7	0
245	70219	340.8	0
245	70219	340.9	0
245	70219	341	0
245	70219	341.1	0
245	70219	341.2	0
245	70219	341.3	0
245	70219	341.4	0
245	70219	341.5	0
245	70219	341.6	0
245	70219	341.7	0
245	70219	341.8	0
245	70219	341.9	0
245	70219	342	0
245	70219	342.1	0
245	70219	342.2	0
245	70219	342.3	0
245	70219	342.4	0
245	70219	342.5	0
245	70219	342.6	0
245	70219	342.7	0
245	70219	342.8	0
245	70219	342.9	0
245	70219	343	0
245	70219	343.1	0
245	70219	343.2	0
245	70219	343.3	0
245	70219	343.4	0
245	70219	343.5	0
245	70219	343.6	0
245	70219	343.7	0
245	70219	343.8	0
245	70219	343.9	0
245	70219	344	0
245	70219	344.1	0
245	70219	344.2	0
245	70219	344.3	0
245	70219	344.4	0
245	70219	344.5	0
245	70219	344.6	0
245	70219	344.7	0
245	70219	344.8	0
245	70219	344.9	0
245	70219	345	0
245	70219	345.1	0
245	70219	345.2	0
245	70219	345.3	0
245	70219	345.4	0
245	70219	345.5	0
245	70219	345.6	0
245	70219	345.7	0
245	70219	345.8	0
245	70219	345.9	0
245	70219	346	0
245	70219	346.1	0
245	70219	346.2	0
245	70219	346.3	0
245	70219	346.4	0
245	70219	346.5	0
245	70219	346.6	0
245	70219	346.7	0
245	70219	346.8	0
245	70219	346.9	0
245	70219	347	0
245	70219	347.1	0
245	70219	347.2	0
245	70219	347.3	0
245	70219	347.4	0
245	70219	347.5	0
245	70219	347.6	0
245	70219	347.7	0
245	70219	347.8	0
245	70219	347.9	0
245	70219	348	0
245	70219	348.1	0
245	70219	348.2	0
245	70219	348.3	0
245	70219	348.4	0
245	70219	348.5	0
245	70219	348.6	0
245	70219	348.7	0
245	70219	348.8	0
245	70219	348.9	0
245	70219	349	0
245	70219	349.1	0
245	70219	349.2	0
245	70219	349.3	0
245	70219	349.4	0
245	70219	349.5	0
245	70219	349.6	0
245	70219	349.7	0
245	70219	349.8	0
245	70219	349.9	0
245	70219	350	0
245	70219	350.1	0
245	70219	350.2	0
245	70219	350.3	0
245	70219	350.4	0
245	70219	350.5	0
245	70219	350.6	0
245	70219	350.7	0
245	70219	350.8	0
245	70219	350.9	0
245	70219	351	0
245	70219	351.1	0
245	70219	351.2	0
245	70219	351.3	0
245	70219	351.4	0
245	70219	351.5	0
245	70219	351.6	0
245	70219	351.7	0
245	70219	351.8	0
245	70219	351.9	0
245	70219	352	0
245	70219	352.1	0
245	70219	352.2	0
245	70219	352.3	0
245	70219	352.4	0
245	70219	352.5	0
245	70219	352.6	0
245	70219	352.7	0
245	70219	352.8	0
245	70219	352.9	0
245	70219	353	0
245	70219	353.1	0
245	70219	353.2	0
245	70219	353.3	0
245	70219	353.4	0
245	70219	353.5	0
245	70219	353.6	0
245	70219	353.7	0
245	70219	353.8	0
245	70219	353.9	0
245	70219	354	0
245	70219	354.1	0
245	70219	354.2	0
245	70219	354.3	0
245	70219	354.4	0
245	70219	354.5	0
245	70219	354.6	0
245	70219	354.7	0
245	70219	354.8	0
245	70219	354.9	0
245	70219	355	0
245	70219	355.1	0
245	70219	355.2	0
245	70219	355.3	0
245	70219	355.4	0
245	70219	355.5	0
245	70219	355.6	0
245	70219	355.7	0
245	70219	355.8	0
245	70219	355.9	0
245	70219	356	0
245	70219	356.1	0
245	70219	356.2	0
245	70219	356.3	0
245	70219	356.4	0
245	70219	356.5	0
245	70219	356.6	0
245	70219	356.7	0
245	70219	356.8	0
245	70219	356.9	0
245	70219	357	0
245	70219	357.1	0
245	70219	357.2	0
245	70219	357.3	0
245	70219	357.4	0
245	70219	357.5	0
245	70219	357.6	0
245	70219	357.7	0
245	70219	357.8	0
245	70219	357.9	0
245	70219	358	0
245	70219	358.1	0
245	70219	358.2	0
245	70219	358.3	0
245	70219	358.4	0
245	70219	358.5	0
245	70219	358.6	0
245	70219	358.7	0
245	70219	358.8	0
245	70219	358.9	0
245	70219	359	0
245	70219	359.1	0
245	70219	359.2	0
245	70219	359.3	0
245	70219	359.4	0
245	70219	359.5	0
245	70219	359.6	0
245	70219	359.7	0
245	70219	359.8	0
245	70219	359.9	0
245	70219	360	0
245	70219	360.1	0
245	70219	360.2	0
245	70219	360.3	0
245	70219	360.4	0
245	70219	360.5	0
245	70219	360.6	0
245	70219	360.7	0
245	70219	360.8	0
245	70219	360.9	0
245	70219	361	0
245	70219	361.1	0
245	70219	361.2	0
245	70219	361.3	0
245	70219	361.4	0
245	70219	361.5	0
245	70219	361.6	0
245	70219	361.7	0
245	70219	361.8	0
245	70219	361.9	0
245	70219	362	0
245	70219	362.1	0
245	70219	362.2	0
245	70219	362.3	0
245	70219	362.4	0
245	70219	362.5	0
245	70219	362.6	0
245	70219	362.7	0
245	70219	362.8	0
245	70219	362.9	0
245	70219	363	0
245	70219	363.1	0
245	70219	363.2	0
245	70219	363.3	0
245	70219	363.4	0
245	70219	363.5	0
245	70219	363.6	0
245	70219	363.7	0
245	70219	363.8	0
245	70219	363.9	0
245	70219	364	0
245	70219	364.1	0
245	70219	364.2	0
245	70219	364.3	0
245	70219	364.4	0
245	70219	364.5	0
245	70219	364.6	0
245	70219	364.7	0
245	70219	364.8	0
245	70219	364.9	0
245	70219	365	0
245	70219	365.1	0
245	70219	365.2	0
245	70219	365.3	0
245	70219	365.4	0
245	70219	365.5	0
245	70219	365.6	0
245	70219	365.7	0
245	70219	365.8	0
245	70219	365.9	0
245	70219	366	0
245	70219	366.1	0
245	70219	366.2	0
245	70219	366.3	0
245	70219	366.4	0
245	70219	366.5	0
245	70219	366.6	0
245	70219	366.7	0
245	70219	366.8	0
245	70219	366.9	0
245	70219	367	0
245	70219	367.1	0
245	70219	367.2	0
245	70219	367.3	0
245	70219	367.4	0
245	70219	367.5	0
245	70219	367.6	0
245	70219	367.7	0
245	70219	367.8	0
245	70219	367.9	0
245	70219	368	0
245	70219	368.1	0
245	70219	368.2	0
245	70219	368.3	0
245	70219	368.4	0
245	70219	368.5	0
245	70219	368.6	0
245	70219	368.7	0
245	70219	368.8	0
245	70219	368.9	0
245	70219	369	0
245	70219	369.1	0
245	70219	369.2	0
245	70219	369.3	0
245	70219	369.4	0
245	70219	369.5	0
245	70219	369.6	0
245	70219	369.7	0
245	70219	369.8	0
245	70219	369.9	0
245	70219	370	0
245	70219	370.1	0
245	70219	370.2	0
245	70219	370.3	0
245	70219	370.4	0
245	70219	370.5	0
245	70219	370.6	0
245	70219	370.7	0
245	70219	370.8	0
245	70219	370.9	0
245	70219	371	0
245	70219	371.1	0
245	70219	371.2	0
245	70219	371.3	0
245	70219	371.4	0
245	70219	371.5	0
245	70219	371.6	0
245	70219	371.7	0
245	70219	371.8	0
245	70219	371.9	0
245	70219	372	0
245	70219	372.1	0
245	70219	372.2	0
245	70219	372.3	0
245	70219	372.4	0
245	70219	372.5	0
245	70219	372.6	0
245	70219	372.7	0
245	70219	372.8	0
245	70219	372.9	0
245	70219	373	0
245	70219	373.1	0
245	70219	373.2	0
245	70219	373.3	0
245	70219	373.4	0
245	70219	373.5	0
245	70219	373.6	0
245	70219	373.7	0
245	70219	373.8	0
245	70219	373.9	0
245	70219	374	0
245	70219	374.1	0
245	70219	374.2	0
245	70219	374.3	0
245	70219	374.4	0
245	70219	374.5	0
245	70219	374.6	0
245	70219	374.7	0
245	70219	374.8	0
245	70219	374.9	0
245	70219	375	0
245	70219	375.1	0
245	70219	375.2	0
245	70219	375.3	0
245	70219	375.4	0
245	70219	375.5	0
245	70219	375.6	0
245	70219	375.7	0
245	70219	375.8	0
245	70219	375.9	0
245	70219	376	0
245	70219	376.1	0
245	70219	376.2	0
245	70219	376.3	0
245	70219	376.4	0
245	70219	376.5	0
245	70219	376.6	0
245	70219	376.7	0
245	70219	376.8	0
245	70219	376.9	0
245	70219	377	0
245	70219	377.1	0
245	70219	377.2	0
245	70219	377.3	0
245	70219	377.4	0
245	70219	377.5	0
245	70219	377.6	0
245	70219	377.7	0
245	70219	377.8	0
245	70219	377.9	0
245	70219	378	0
245	70219	378.1	0
245	70219	378.2	0
245	70219	378.3	0
245	70219	378.4	0
245	70219	378.5	0
245	70219	378.6	0
245	70219	378.7	0
245	70219	378.8	0
245	70219	378.9	0
245	70219	379	0
245	70219	379.1	0
245	70219	379.2	0
245	70219	379.3	0
245	70219	379.4	0
245	70219	379.5	0
245	70219	379.6	0
245	70219	379.7	0
245	70219	379.8	0
245	70219	379.9	0
245	70219	380	0
245	70219	380.1	0
245	70219	380.2	0
245	70219	380.3	0
245	70219	380.4	0
245	70219	380.5	0
245	70219	380.6	0
245	70219	380.7	0
245	70219	380.8	0
245	70219	380.9	0
245	70219	381	0
245	70219	381.1	0
245	70219	381.2	0
245	70219	381.3	0
245	70219	381.4	0
245	70219	381.5	0
245	70219	381.6	0
245	70219	381.7	0
245	70219	381.8	0
245	70219	381.9	0
245	70219	382	0
245	70219	382.1	0
245	70219	382.2	0
245	70219	382.3	0
245	70219	382.4	0
245	70219	382.5	0
245	70219	382.6	0
245	70219	382.7	0
245	70219	382.8	0
245	70219	382.9	0
245	70219	383	0
245	70219	383.1	0
245	70219	383.2	0
245	70219	383.3	0
245	70219	383.4	0
245	70219	383.5	0
245	70219	383.6	0
245	70219	383.7	0
245	70219	383.8	0
245	70219	383.9	0
245	70219	384	0
245	70219	384.1	0
245	70219	384.2	0
245	70219	384.3	0
245	70219	384.4	0
245	70219	384.5	0
245	70219	384.6	0
245	70219	384.7	0
245	70219	384.8	0
245	70219	384.9	0
245	70219	385	0
245	70219	385.1	0
245	70219	385.2	0
245	70219	385.3	0
245	70219	385.4	0
245	70219	385.5	0
245	70219	385.6	0
245	70219	385.7	0
245	70219	385.8	0
245	70219	385.9	0
245	70219	386	0
245	70219	386.1	0
245	70219	386.2	0
245	70219	386.3	0
245	70219	386.4	0
245	70219	386.5	0
245	70219	386.6	0
245	70219	386.7	0
245	70219	386.8	0
245	70219	386.9	0
245	70219	387	0
245	70219	387.1	0
245	70219	387.2	0
245	70219	387.3	0
245	70219	387.4	0
245	70219	387.5	0
245	70219	387.6	0
245	70219	387.7	0
245	70219	387.8	0
245	70219	387.9	0
245	70219	388	0
245	70219	388.1	0
245	70219	388.2	0
245	70219	388.3	0
245	70219	388.4	0
245	70219	388.5	0
245	70219	388.6	0
245	70219	388.7	0
245	70219	388.8	0
245	70219	388.9	0
245	70219	389	0
245	70219	389.1	0
245	70219	389.2	0
245	70219	389.3	0
245	70219	389.4	0
245	70219	389.5	0
245	70219	389.6	0
245	70219	389.7	0
245	70219	389.8	0
245	70219	389.9	0
245	70219	390	0
245	70219	390.1	0
245	70219	390.2	0
245	70219	390.3	0
245	70219	390.4	0
245	70219	390.5	0
245	70219	390.6	0
245	70219	390.7	0
245	70219	390.8	0
245	70219	390.9	0
245	70219	391	0
245	70219	391.1	0
245	70219	391.2	0
245	70219	391.3	0
245	70219	391.4	0
245	70219	391.5	0
245	70219	391.6	0
245	70219	391.7	0
245	70219	391.8	0
245	70219	391.9	0
245	70219	392	0
245	70219	392.1	0
245	70219	392.2	0
245	70219	392.3	0
245	70219	392.4	0
245	70219	392.5	0
245	70219	392.6	0
245	70219	392.7	0
245	70219	392.8	0
245	70219	392.9	0
245	70219	393	0
245	70219	393.1	0
245	70219	393.2	0
245	70219	393.3	0
245	70219	393.4	0
245	70219	393.5	0
245	70219	393.6	0
245	70219	393.7	0
245	70219	393.8	0
245	70219	393.9	0
245	70219	394	0
245	70219	394.1	0
245	70219	394.2	0
245	70219	394.3	0
245	70219	394.4	0
245	70219	394.5	0
245	70219	394.6	0
245	70219	394.7	0
245	70219	394.8	0
245	70219	394.9	0
245	70219	395	0
245	70219	395.1	0
245	70219	395.2	0
245	70219	395.3	0
245	70219	395.4	0
245	70219	395.5	0
245	70219	395.6	0
245	70219	395.7	0
245	70219	395.8	0
245	70219	395.9	0
245	70219	396	0
245	70219	396.1	0
245	70219	396.2	0
245	70219	396.3	0
245	70219	396.4	0
245	70219	396.5	0
245	70219	396.6	0
245	70219	396.7	0
245	70219	396.8	0
245	70219	396.9	0
245	70219	397	0
245	70219	397.1	0
245	70219	397.2	0
245	70219	397.3	0
245	70219	397.4	0
245	70219	397.5	0
245	70219	397.6	0
245	70219	397.7	0
245	70219	397.8	0
245	70219	397.9	0
245	70219	398	0
245	70219	398.1	0
245	70219	398.2	0
245	70219	398.3	0
245	70219	398.4	0
245	70219	398.5	0
245	70219	398.6	0
245	70219	398.7	0
245	70219	398.8	0
245	70219	398.9	0
245	70219	399	0
245	70219	399.1	0
245	70219	399.2	0
245	70219	399.3	0
245	70219	399.4	0
245	70219	399.5	0
245	70219	399.6	0
245	70219	399.7	0
245	70219	399.8	0
245	70219	399.9	0
245	70219	400	0
245	70219	400.1	0
245	70219	400.2	0
245	70219	400.3	0
245	70219	400.4	0
245	70219	400.5	0
245	70219	400.6	0
245	70219	400.7	0
245	70219	400.8	0
245	70219	400.9	0
245	70219	401	0
245	70219	401.1	0
245	70219	401.2	0
245	70219	401.3	0
245	70219	401.4	0
245	70219	401.5	0
245	70219	401.6	0
245	70219	401.7	0
245	70219	401.8	0
245	70219	401.9	0
245	70219	402	0
245	70219	402.1	0
245	70219	402.2	0
245	70219	402.3	0
245	70219	402.4	0
245	70219	402.40959579441	0

