file 2759869 1627572794                                         
version 2
run Sim4drone-0-20210729-12:31:45-2212
attr configname Sim4drone
attr datetime 20210729-12:31:45
attr experiment Sim4drone
attr inifile mobilityDrones-omnetpp.ini
attr iterationvars ""
attr iterationvarsf ""
attr measurement ""
attr network mobilityDrones
attr processid 2212
attr repetition 0
attr replication #0
attr resultdir results
attr runnumber 0
attr seedset 0
param *.numUAVs 4
param *.quads[0].app[0].destAddresses "\"quads[1] quads[2] quads[3] sensors[0] sensors[1] sensors[2] groundStation\""
param *.quads[1].app[0].destAddresses "\"quads[0] quads[2] quads[3] sensors[0] sensors[1] sensors[2] groundStation\""
param *.quads[2].app[0].destAddresses "\"quads[0] quads[1] quads[3] sensors[0] sensors[1] sensors[2] groundStation\""
param *.quads[3].app[0].destAddresses "\"quads[0] quads[1] quads[2] sensors[0] sensors[1] sensors[2] groundStation\""
param *.quads[*].mobility.waypointFile "\"paths/voo2.waypoints\""
param *.quads[*].app[*].timeoutDuration 5s
param *.quads[0].mobility.startTime 0s
param *.quads[1].mobility.startTime 40s
param *.quads[2].mobility.startTime 80s
param *.quads[3].mobility.startTime 110s
param *.quads[0].app[*].startTime "normal(1s, 1s)"
param *.quads[1].app[*].startTime "normal(40s, 1s)"
param *.quads[2].app[*].startTime "normal(80s, 1s)"
param *.quads[3].app[*].startTime "normal(110s, 1s)"
param *.numSensors 8
param *.sensors[*].numApps 1
param *.sensors[*].app[0].typename "\"UdpSensorCommunicationApp\""
param *.sensors[*].app[0].destAddresses "\"quads[0] quads[1] quads[2] quads[3]\""
param *.sensors[*].app[0].destPort 1000
param *.sensors[*].app[0].localPort 1000
param *.sensors[*].app[0].sendInterval 8s
param *.sensors[*].app[0].startTime exponential(1s)
param *.sensors[*].app[0].messageLength 1454Byte
param *.sensors[*].mobility.initialAltitude 0m
param *.sensors[0].mobility.initialLatitude -15.84245230deg
param *.sensors[0].mobility.initialLongitude -47.92948720deg
param *.sensors[1].mobility.initialLatitude -15.84262780deg
param *.sensors[1].mobility.initialLongitude -47.92650460deg
param *.sensors[2].mobility.initialLatitude -15.84161630deg
param *.sensors[2].mobility.initialLongitude -47.92395110deg
param *.sensors[3..7].app[0].typename "\"UdpSinkMobileSenserNode\""
param *.sensors[3].mobility.initialLatitude -15.8436264deg
param *.sensors[3].mobility.initialLongitude -47.9270250deg
param *.sensors[4].mobility.initialLatitude -15.8406461deg
param *.sensors[4].mobility.initialLongitude -47.9240263deg
param *.sensors[5].mobility.initialLatitude -15.8416370deg
param *.sensors[5].mobility.initialLongitude -47.9227066deg
param *.sensors[6].mobility.initialLatitude -15.8437115deg
param *.sensors[6].mobility.initialLongitude -47.9259145deg
param *.sensors[7].mobility.initialLatitude -15.8437425deg
param *.sensors[7].mobility.initialLongitude -47.9246378deg
param *.groundStation.mobility.initialLatitude -15.840068deg
param *.groundStation.mobility.initialLongitude -47.926633deg
param *.groundStation.app[0].destAddresses "\"quads[0] quads[1] quads[2] quads[3]\""
param *.groundStation.app[0].startTime 130s
param *.visualizer.osgVisualizer.typename "\"IntegratedOsgVisualizer\""
param *.visualizer.osgVisualizer.sceneVisualizer.typename "\"SceneOsgEarthVisualizer\""
param *.visualizer.osgVisualizer.sceneVisualizer.mapFile "\"map.earth\""
param *.visualizer.osgVisualizer.sceneVisualizer.sceneImageSize 10000m
param *.visualizer.osgVisualizer.sceneVisualizer.axisLength 500m
param *.visualizer.osgVisualizer.sceneVisualizer.sceneMinX -200m
param *.visualizer.osgVisualizer.sceneVisualizer.sceneMinY -200m
param *.visualizer.osgVisualizer.sceneVisualizer.sceneMinZ 0m
param *.visualizer.osgVisualizer.sceneVisualizer.sceneMaxX 5000m
param *.visualizer.osgVisualizer.sceneVisualizer.sceneMaxY 5000m
param *.visualizer.osgVisualizer.sceneVisualizer.sceneMaxZ 5000m
param *.visualizer.osgVisualizer.networkNodeVisualizer.displayModuleName true
param *.visualizer.*.statisticVisualizer.signalName "\"dataLoad\""
param *.visualizer.*.statisticVisualizer.format "\"(%v)\""
param *.visualizer.*.statisticVisualizer.textColor "\"red\""
param *.visualizer.*.statisticVisualizer.font "\"Courier New, 12px, bold\""
param *.visualizer.*.statisticVisualizer.opacity 1
param *.visualizer.*.statisticVisualizer.sourceFilter "\"*.quads[*].** *.groundStation.**\""
param *.visualizer.*.mobilityVisualizer.displayMobility true
param *.visualizer.*.mobilityVisualizer.displayPositions true
param *.visualizer.*.mobilityVisualizer.displayOrientations true
param *.visualizer.*.mobilityVisualizer.displayVelocities true
param *.visualizer.*.mobilityVisualizer.displayMovementTrails true
param *.visualizer.*.mobilityVisualizer.animationSpeed 10
param *.visualizer.mediumVisualizer.displaySignals true
param **.constraintAreaMinX -5000m
param **.constraintAreaMinY -5000m
param **.constraintAreaMinZ -100m
param **.constraintAreaMaxX 5000m
param **.constraintAreaMaxY 5000m
param **.constraintAreaMaxZ 5000m
param *.quads.wlan[0].radio.displayCommunicationRange true
param *.coordinateSystem.sceneLongitude -47.926634deg
param *.coordinateSystem.sceneLatitude -15.840075deg
param *.coordinateSystem.sceneHeading 90deg
param *.environment.ground.typename "\"FlatGround\""
param *.quads[*].osgModel "\"3d/drone.ive.80.scale.0,0,90.rot\""
param *.quads[*].mobility.coordinateSystemModule "\"coordinateSystem\""
param *.quads[*].mobility.waypointFile "\"paths/gradys-vai-e-volta-descendo-5s-v1.txt\""
param *.quads[*].mobility.waypointProximity 1m
param **.mobility.initFromDisplayString false
param *.quads[*].mobility.speed 10mps
param *.quads[*].numApps 1
param *.quads[*].app[0].typename "\"UdpMobileNodeCommunicationApp\""
param *.quads[*].app[0].localPort 1000
param *.quads[*].app[0].destPort 1000
param *.quads[*].app[0].sendInterval 1s
param *.quads[*].app[0].startTime 1s
param *.quads[*].app[0].stopTime -1s
param *.quads[*].app[0].messageLength 1454Byte
param *.quads[*].app[0].packetName "\"UAV-DEFAULT-PAYLOAD\""
param *.quads[*].mobility.typename "\"DroneMobility\""
param *.sensors[*].mobility.typename "\"StationaryMobility\""
param *.sensors[*].mobility.coordinateSystemModule "\"coordinateSystem\""
param *.groundStation.mobility.typename "\"StationaryMobility\""
param *.groundStation.mobility.coordinateSystemModule "\"coordinateSystem\""
param *.groundStation.numApps 1
param *.groundStation.app[0].typename "\"UdpMobileNodeCommunicationApp\""
param *.groundStation.app[0].destPort 1000
param *.groundStation.app[0].localPort 1000
param *.groundStation.app[0].sendInterval 1s
param *.groundStation.app[0].stopTime -1s
param *.groundStation.app[0].messageLength 1454Byte
param *.groundStation.app[0].packetName "\"UAV-DEFAULT-PAYLOAD\""

vector 0 mobilityDrones.quads[0].wlan[0].radio radioMode:vector ETV
attr interpolationmode sample-hold
attr source radioModeChanged
attr title "Radio mode, vector"
vector 1 mobilityDrones.quads[0].wlan[0].radio radioChannel:vector ETV
attr interpolationmode sample-hold
attr source radioChannelChanged
attr title "Radio channel, vector"
vector 2 mobilityDrones.quads[1].wlan[0].radio radioMode:vector ETV
attr interpolationmode sample-hold
attr source radioModeChanged
attr title "Radio mode, vector"
vector 3 mobilityDrones.quads[1].wlan[0].radio radioChannel:vector ETV
attr interpolationmode sample-hold
attr source radioChannelChanged
attr title "Radio channel, vector"
vector 4 mobilityDrones.quads[2].wlan[0].radio radioMode:vector ETV
attr interpolationmode sample-hold
attr source radioModeChanged
attr title "Radio mode, vector"
vector 5 mobilityDrones.quads[2].wlan[0].radio radioChannel:vector ETV
attr interpolationmode sample-hold
attr source radioChannelChanged
attr title "Radio channel, vector"
vector 6 mobilityDrones.quads[3].wlan[0].radio radioMode:vector ETV
attr interpolationmode sample-hold
attr source radioModeChanged
attr title "Radio mode, vector"
vector 7 mobilityDrones.quads[3].wlan[0].radio radioChannel:vector ETV
attr interpolationmode sample-hold
attr source radioChannelChanged
attr title "Radio channel, vector"
vector 8 mobilityDrones.sensors[0].wlan[0].radio radioMode:vector ETV
attr interpolationmode sample-hold
attr source radioModeChanged
attr title "Radio mode, vector"
vector 9 mobilityDrones.sensors[0].wlan[0].radio radioChannel:vector ETV
attr interpolationmode sample-hold
attr source radioChannelChanged
attr title "Radio channel, vector"
vector 10 mobilityDrones.sensors[1].wlan[0].radio radioMode:vector ETV
attr interpolationmode sample-hold
attr source radioModeChanged
attr title "Radio mode, vector"
vector 11 mobilityDrones.sensors[1].wlan[0].radio radioChannel:vector ETV
attr interpolationmode sample-hold
attr source radioChannelChanged
attr title "Radio channel, vector"
vector 12 mobilityDrones.sensors[2].wlan[0].radio radioMode:vector ETV
attr interpolationmode sample-hold
attr source radioModeChanged
attr title "Radio mode, vector"
vector 13 mobilityDrones.sensors[2].wlan[0].radio radioChannel:vector ETV
attr interpolationmode sample-hold
attr source radioChannelChanged
attr title "Radio channel, vector"
vector 14 mobilityDrones.sensors[3].wlan[0].radio radioMode:vector ETV
attr interpolationmode sample-hold
attr source radioModeChanged
attr title "Radio mode, vector"
vector 15 mobilityDrones.sensors[3].wlan[0].radio radioChannel:vector ETV
attr interpolationmode sample-hold
attr source radioChannelChanged
attr title "Radio channel, vector"
vector 16 mobilityDrones.sensors[4].wlan[0].radio radioMode:vector ETV
attr interpolationmode sample-hold
attr source radioModeChanged
attr title "Radio mode, vector"
vector 17 mobilityDrones.sensors[4].wlan[0].radio radioChannel:vector ETV
attr interpolationmode sample-hold
attr source radioChannelChanged
attr title "Radio channel, vector"
vector 18 mobilityDrones.sensors[5].wlan[0].radio radioMode:vector ETV
attr interpolationmode sample-hold
attr source radioModeChanged
attr title "Radio mode, vector"
vector 19 mobilityDrones.sensors[5].wlan[0].radio radioChannel:vector ETV
attr interpolationmode sample-hold
attr source radioChannelChanged
attr title "Radio channel, vector"
vector 20 mobilityDrones.sensors[6].wlan[0].radio radioMode:vector ETV
attr interpolationmode sample-hold
attr source radioModeChanged
attr title "Radio mode, vector"
vector 21 mobilityDrones.sensors[6].wlan[0].radio radioChannel:vector ETV
attr interpolationmode sample-hold
attr source radioChannelChanged
attr title "Radio channel, vector"
vector 22 mobilityDrones.sensors[7].wlan[0].radio radioMode:vector ETV
attr interpolationmode sample-hold
attr source radioModeChanged
attr title "Radio mode, vector"
vector 23 mobilityDrones.sensors[7].wlan[0].radio radioChannel:vector ETV
attr interpolationmode sample-hold
attr source radioChannelChanged
attr title "Radio channel, vector"
vector 24 mobilityDrones.groundStation.wlan[0].radio radioMode:vector ETV
attr interpolationmode sample-hold
attr source radioModeChanged
attr title "Radio mode, vector"
vector 25 mobilityDrones.groundStation.wlan[0].radio radioChannel:vector ETV
attr interpolationmode sample-hold
attr source radioChannelChanged
attr title "Radio channel, vector"
vector 26 mobilityDrones.quads[0].wlan[0].radio receptionState:vector ETV
attr interpolationmode sample-hold
attr source receptionStateChanged
attr title "Radio reception state, vector"
vector 27 mobilityDrones.quads[1].wlan[0].radio receptionState:vector ETV
attr interpolationmode sample-hold
attr source receptionStateChanged
attr title "Radio reception state, vector"
vector 28 mobilityDrones.quads[2].wlan[0].radio receptionState:vector ETV
attr interpolationmode sample-hold
attr source receptionStateChanged
attr title "Radio reception state, vector"
vector 29 mobilityDrones.quads[3].wlan[0].radio receptionState:vector ETV
attr interpolationmode sample-hold
attr source receptionStateChanged
attr title "Radio reception state, vector"
vector 30 mobilityDrones.sensors[0].wlan[0].radio receptionState:vector ETV
attr interpolationmode sample-hold
attr source receptionStateChanged
attr title "Radio reception state, vector"
vector 31 mobilityDrones.sensors[1].wlan[0].radio receptionState:vector ETV
attr interpolationmode sample-hold
attr source receptionStateChanged
attr title "Radio reception state, vector"
vector 32 mobilityDrones.sensors[2].wlan[0].radio receptionState:vector ETV
attr interpolationmode sample-hold
attr source receptionStateChanged
attr title "Radio reception state, vector"
vector 33 mobilityDrones.sensors[3].wlan[0].radio receptionState:vector ETV
attr interpolationmode sample-hold
attr source receptionStateChanged
attr title "Radio reception state, vector"
vector 34 mobilityDrones.sensors[4].wlan[0].radio receptionState:vector ETV
attr interpolationmode sample-hold
attr source receptionStateChanged
attr title "Radio reception state, vector"
vector 35 mobilityDrones.sensors[5].wlan[0].radio receptionState:vector ETV
attr interpolationmode sample-hold
attr source receptionStateChanged
attr title "Radio reception state, vector"
vector 36 mobilityDrones.sensors[6].wlan[0].radio receptionState:vector ETV
attr interpolationmode sample-hold
attr source receptionStateChanged
attr title "Radio reception state, vector"
vector 37 mobilityDrones.sensors[7].wlan[0].radio receptionState:vector ETV
attr interpolationmode sample-hold
attr source receptionStateChanged
attr title "Radio reception state, vector"
vector 38 mobilityDrones.groundStation.wlan[0].radio receptionState:vector ETV
attr interpolationmode sample-hold
attr source receptionStateChanged
attr title "Radio reception state, vector"
vector 39 mobilityDrones.quads[0].wlan[0].mac.dcf.recoveryProcedure contentionWindowChanged:vector ETV
attr interpolationmode sample-hold
attr title "contention window, vector"
vector 40 mobilityDrones.quads[1].wlan[0].mac.dcf.recoveryProcedure contentionWindowChanged:vector ETV
attr interpolationmode sample-hold
attr title "contention window, vector"
vector 41 mobilityDrones.quads[2].wlan[0].mac.dcf.recoveryProcedure contentionWindowChanged:vector ETV
attr interpolationmode sample-hold
attr title "contention window, vector"
vector 42 mobilityDrones.quads[3].wlan[0].mac.dcf.recoveryProcedure contentionWindowChanged:vector ETV
attr interpolationmode sample-hold
attr title "contention window, vector"
vector 43 mobilityDrones.sensors[0].wlan[0].mac.dcf.recoveryProcedure contentionWindowChanged:vector ETV
attr interpolationmode sample-hold
attr title "contention window, vector"
vector 44 mobilityDrones.sensors[1].wlan[0].mac.dcf.recoveryProcedure contentionWindowChanged:vector ETV
attr interpolationmode sample-hold
attr title "contention window, vector"
vector 45 mobilityDrones.sensors[2].wlan[0].mac.dcf.recoveryProcedure contentionWindowChanged:vector ETV
attr interpolationmode sample-hold
attr title "contention window, vector"
vector 46 mobilityDrones.sensors[3].wlan[0].mac.dcf.recoveryProcedure contentionWindowChanged:vector ETV
attr interpolationmode sample-hold
attr title "contention window, vector"
vector 47 mobilityDrones.sensors[4].wlan[0].mac.dcf.recoveryProcedure contentionWindowChanged:vector ETV
attr interpolationmode sample-hold
attr title "contention window, vector"
vector 48 mobilityDrones.sensors[5].wlan[0].mac.dcf.recoveryProcedure contentionWindowChanged:vector ETV
attr interpolationmode sample-hold
attr title "contention window, vector"
vector 49 mobilityDrones.sensors[6].wlan[0].mac.dcf.recoveryProcedure contentionWindowChanged:vector ETV
attr interpolationmode sample-hold
attr title "contention window, vector"
vector 50 mobilityDrones.sensors[7].wlan[0].mac.dcf.recoveryProcedure contentionWindowChanged:vector ETV
attr interpolationmode sample-hold
attr title "contention window, vector"
vector 51 mobilityDrones.groundStation.wlan[0].mac.dcf.recoveryProcedure contentionWindowChanged:vector ETV
attr interpolationmode sample-hold
attr title "contention window, vector"
vector 52 mobilityDrones.quads[0].app[0] packetSent:vector(packetBytes) ETV
attr interpolationmode none
attr source packetSent
attr title "packets sent, vector(packetBytes)"
vector 53 mobilityDrones.quads[0].udp packetSent:vector(packetBytes) ETV
attr interpolationmode none
attr source packetSent
attr title "packets sent, vector(packetBytes)"
vector 54 mobilityDrones.quads[0].lo[0].lo rcvdPkFromHl:vector(packetBytes) ETV
attr interpolationmode none
attr source packetReceivedFromUpper
attr title "packets received from higher layer, vector(packetBytes)"
vector 55 mobilityDrones.quads[0].lo[0].lo passedUpPk:vector(packetBytes) ETV
attr interpolationmode none
attr source packetSentToUpper
attr title "packets passed to higher layer, vector(packetBytes)"
vector 56 mobilityDrones.quads[0].wlan[0].mac packetReceivedFromUpper:vector(packetBytes) ETV
attr interpolationmode none
attr title "packets received from upper layer, vector(packetBytes)"
vector 57 mobilityDrones.quads[0].wlan[0].mac.dcf.channelAccess.pendingQueue packetPushed:vector(packetBytes) ETV
attr interpolationmode none
attr title "packet pushed, vector(packetBytes)"
vector 58 mobilityDrones.quads[0].wlan[0].mac.dcf.channelAccess.pendingQueue queueLength:vector ETV
attr interpolationmode sample-hold
attr source "count(packetPushed) - count(packetPopped) - count(packetRemoved) - count(packetDropped)"
attr title "queue length, vector"
vector 59 mobilityDrones.quads[0].wlan[0].mac.dcf.channelAccess.contention backoffPeriodGenerated:vector ETV
attr interpolationmode none
attr title "backoff periods, vector"
vector 60 mobilityDrones.quads[0].wlan[0].mac.dcf.channelAccess.contention backoffActive:vector ETV
attr interpolationmode sample-hold
attr source count(backoffStarted)-count(backoffStopped)
attr title "backoff active, vector"
vector 61 mobilityDrones.quads[0].udp packetReceived:vector(packetBytes) ETV
attr interpolationmode none
attr source packetReceived
attr title "packets received, vector(packetBytes)"
vector 62 mobilityDrones.quads[0].udp passedUpPk:vector(count) ETV
attr interpolationmode none
attr source packetSentToUpper
attr title "packets passed up, vector(count)"
vector 63 mobilityDrones.quads[0].wlan[0].mac.dcf.channelAccess.pendingQueue packetPopped:vector(packetBytes) ETV
attr interpolationmode none
attr title "packet popped, vector(packetBytes)"
vector 64 mobilityDrones.quads[0].wlan[0].mac.dcf.channelAccess.pendingQueue queueingTime:vector ETV
attr interpolationmode none
attr source queueingTime(packetPopped)
attr title "queueing times, vector"
attr unit s
vector 65 mobilityDrones.quads[0].wlan[0].mac.dcf.channelAccess.inProgressFrames queueLength:vector ETV
attr interpolationmode sample-hold
attr source "count(packetEnqueued) - count(packetDequeued)"
attr title "queue length, vector"
vector 66 mobilityDrones.quads[0].wlan[0].mac.dcf datarateSelected:vector ETV
attr interpolationmode none
attr title "datarates selected, vector"
vector 67 mobilityDrones.quads[0].wlan[0].mac packetSentToLower:vector(packetBytes) ETV
attr interpolationmode none
attr title "packets sent to lower layer, vector(packetBytes)"
vector 68 mobilityDrones.quads[0].wlan[0].mac.dcf frameSequenceActive:vector ETV
attr interpolationmode sample-hold
attr source count(frameSequenceStarted)-count(frameSequenceFinished)
attr title "frame sequence active, vector"
vector 69 mobilityDrones.quads[0].wlan[0].radio transmissionState:vector ETV
attr interpolationmode sample-hold
attr source transmissionStateChanged
attr title "Radio transmission state, vector"
vector 70 mobilityDrones.quads[0].wlan[0].mac.dcf packetSentToPeer:vector(packetBytes) ETV
attr interpolationmode none
attr title "packets sent, vector(packetBytes)"
vector 71 mobilityDrones.quads[0].wlan[0].mac.dcf packetSentToPeerMulticast:vector(packetBytes) ETV
attr interpolationmode none
attr source ieee80211Multicast(packetSentToPeer)
attr title "packets sent: multicast, vector(packetBytes)"
vector 72 mobilityDrones.quads[0].wlan[0].mac.dcf packetSentToPeerWithoutRetry:vector(packetBytes) ETV
attr interpolationmode none
attr source ieee80211NotRetry(packetSentToPeer)
attr title "packets sent: without retry, vector(packetBytes)"
vector 73 mobilityDrones.quads[0].wlan[0].mac.dcf.channelAccess.inProgressFrames queueingTime:vector ETV
attr interpolationmode none
attr source queueingTime(packetDequeued)
attr title "queueing times, vector"
vector 74 mobilityDrones.quads[1].wlan[0].mac packetReceivedFromLower:vector(packetBytes) ETV
attr interpolationmode none
attr title "packets received from lower layer, vector(packetBytes)"
vector 75 mobilityDrones.quads[1].wlan[0].mac.dcf packetReceivedFromPeer:vector(packetBytes) ETV
attr interpolationmode none
attr title "packets received, vector(packetBytes)"
vector 76 mobilityDrones.quads[1].wlan[0].mac.dcf packetReceivedFromPeerMulticast:vector(packetBytes) ETV
attr interpolationmode none
attr source ieee80211Multicast(packetReceivedFromPeer)
attr title "packets received: multicast, vector(packetBytes)"
vector 77 mobilityDrones.quads[1].wlan[0].mac.dcf packetReceivedFromPeerWithoutRetry:vector(packetBytes) ETV
attr interpolationmode none
attr source ieee80211NotRetry(packetReceivedFromPeer)
attr title "packets received: without retry, vector(packetBytes)"
vector 78 mobilityDrones.quads[1].wlan[0].mac packetSentToUpper:vector(packetBytes) ETV
attr interpolationmode none
attr title "packets sent to upper layer, vector(packetBytes)"
vector 79 mobilityDrones.quads[2].wlan[0].mac packetReceivedFromLower:vector(packetBytes) ETV
attr interpolationmode none
attr title "packets received from lower layer, vector(packetBytes)"
vector 80 mobilityDrones.quads[2].wlan[0].mac.dcf packetReceivedFromPeer:vector(packetBytes) ETV
attr interpolationmode none
attr title "packets received, vector(packetBytes)"
vector 81 mobilityDrones.quads[2].wlan[0].mac.dcf packetReceivedFromPeerMulticast:vector(packetBytes) ETV
attr interpolationmode none
attr source ieee80211Multicast(packetReceivedFromPeer)
attr title "packets received: multicast, vector(packetBytes)"
vector 82 mobilityDrones.quads[2].wlan[0].mac.dcf packetReceivedFromPeerWithoutRetry:vector(packetBytes) ETV
attr interpolationmode none
attr source ieee80211NotRetry(packetReceivedFromPeer)
attr title "packets received: without retry, vector(packetBytes)"
vector 83 mobilityDrones.quads[2].wlan[0].mac packetSentToUpper:vector(packetBytes) ETV
attr interpolationmode none
attr title "packets sent to upper layer, vector(packetBytes)"
vector 84 mobilityDrones.quads[3].wlan[0].mac packetReceivedFromLower:vector(packetBytes) ETV
attr interpolationmode none
attr title "packets received from lower layer, vector(packetBytes)"
vector 85 mobilityDrones.quads[3].wlan[0].mac.dcf packetReceivedFromPeer:vector(packetBytes) ETV
attr interpolationmode none
attr title "packets received, vector(packetBytes)"
vector 86 mobilityDrones.quads[3].wlan[0].mac.dcf packetReceivedFromPeerMulticast:vector(packetBytes) ETV
attr interpolationmode none
attr source ieee80211Multicast(packetReceivedFromPeer)
attr title "packets received: multicast, vector(packetBytes)"
vector 87 mobilityDrones.quads[3].wlan[0].mac.dcf packetReceivedFromPeerWithoutRetry:vector(packetBytes) ETV
attr interpolationmode none
attr source ieee80211NotRetry(packetReceivedFromPeer)
attr title "packets received: without retry, vector(packetBytes)"
vector 88 mobilityDrones.quads[3].wlan[0].mac packetSentToUpper:vector(packetBytes) ETV
attr interpolationmode none
attr title "packets sent to upper layer, vector(packetBytes)"
vector 89 mobilityDrones.groundStation.wlan[0].mac packetReceivedFromLower:vector(packetBytes) ETV
attr interpolationmode none
attr title "packets received from lower layer, vector(packetBytes)"
vector 90 mobilityDrones.groundStation.wlan[0].mac.dcf packetReceivedFromPeer:vector(packetBytes) ETV
attr interpolationmode none
attr title "packets received, vector(packetBytes)"
vector 91 mobilityDrones.groundStation.wlan[0].mac.dcf packetReceivedFromPeerMulticast:vector(packetBytes) ETV
attr interpolationmode none
attr source ieee80211Multicast(packetReceivedFromPeer)
attr title "packets received: multicast, vector(packetBytes)"
vector 92 mobilityDrones.groundStation.wlan[0].mac.dcf packetReceivedFromPeerWithoutRetry:vector(packetBytes) ETV
attr interpolationmode none
attr source ieee80211NotRetry(packetReceivedFromPeer)
attr title "packets received: without retry, vector(packetBytes)"
vector 93 mobilityDrones.groundStation.wlan[0].mac packetSentToUpper:vector(packetBytes) ETV
attr interpolationmode none
attr title "packets sent to upper layer, vector(packetBytes)"
vector 94 mobilityDrones.quads[1].wlan[0].mac packetDrop:vector(packetBytes) ETV
attr interpolationmode none
attr source packetDropped
attr title "packet drops, vector(packetBytes)"
vector 95 mobilityDrones.quads[1].wlan[0].mac packetDropIncorrectlyReceived:vector(packetBytes) ETV
attr interpolationmode none
attr source packetDropReasonIsIncorrectlyReceived(packetDropped)
attr title "packet drops: incorrectly received, vector(packetBytes)"
vector 96 mobilityDrones.quads[1].app[0] packetSent:vector(packetBytes) ETV
attr interpolationmode none
attr source packetSent
attr title "packets sent, vector(packetBytes)"
vector 97 mobilityDrones.quads[1].udp packetSent:vector(packetBytes) ETV
attr interpolationmode none
attr source packetSent
attr title "packets sent, vector(packetBytes)"
vector 98 mobilityDrones.quads[1].lo[0].lo rcvdPkFromHl:vector(packetBytes) ETV
attr interpolationmode none
attr source packetReceivedFromUpper
attr title "packets received from higher layer, vector(packetBytes)"
vector 99 mobilityDrones.quads[1].lo[0].lo passedUpPk:vector(packetBytes) ETV
attr interpolationmode none
attr source packetSentToUpper
attr title "packets passed to higher layer, vector(packetBytes)"
vector 100 mobilityDrones.quads[1].wlan[0].mac packetReceivedFromUpper:vector(packetBytes) ETV
attr interpolationmode none
attr title "packets received from upper layer, vector(packetBytes)"
vector 101 mobilityDrones.quads[1].wlan[0].mac.dcf.channelAccess.pendingQueue packetPushed:vector(packetBytes) ETV
attr interpolationmode none
attr title "packet pushed, vector(packetBytes)"
vector 102 mobilityDrones.quads[1].wlan[0].mac.dcf.channelAccess.pendingQueue queueLength:vector ETV
attr interpolationmode sample-hold
attr source "count(packetPushed) - count(packetPopped) - count(packetRemoved) - count(packetDropped)"
attr title "queue length, vector"
vector 103 mobilityDrones.quads[1].wlan[0].mac.dcf.channelAccess.contention backoffPeriodGenerated:vector ETV
attr interpolationmode none
attr title "backoff periods, vector"
vector 104 mobilityDrones.quads[1].wlan[0].mac.dcf.channelAccess.contention backoffActive:vector ETV
attr interpolationmode sample-hold
attr source count(backoffStarted)-count(backoffStopped)
attr title "backoff active, vector"
vector 105 mobilityDrones.quads[1].udp packetReceived:vector(packetBytes) ETV
attr interpolationmode none
attr source packetReceived
attr title "packets received, vector(packetBytes)"
vector 106 mobilityDrones.quads[1].udp passedUpPk:vector(count) ETV
attr interpolationmode none
attr source packetSentToUpper
attr title "packets passed up, vector(count)"
vector 107 mobilityDrones.quads[1].wlan[0].mac.dcf.channelAccess.pendingQueue packetPopped:vector(packetBytes) ETV
attr interpolationmode none
attr title "packet popped, vector(packetBytes)"
vector 108 mobilityDrones.quads[1].wlan[0].mac.dcf.channelAccess.pendingQueue queueingTime:vector ETV
attr interpolationmode none
attr source queueingTime(packetPopped)
attr title "queueing times, vector"
attr unit s
vector 109 mobilityDrones.quads[1].wlan[0].mac.dcf.channelAccess.inProgressFrames queueLength:vector ETV
attr interpolationmode sample-hold
attr source "count(packetEnqueued) - count(packetDequeued)"
attr title "queue length, vector"
vector 110 mobilityDrones.quads[1].wlan[0].mac.dcf datarateSelected:vector ETV
attr interpolationmode none
attr title "datarates selected, vector"
vector 111 mobilityDrones.quads[1].wlan[0].mac packetSentToLower:vector(packetBytes) ETV
attr interpolationmode none
attr title "packets sent to lower layer, vector(packetBytes)"
vector 112 mobilityDrones.quads[1].wlan[0].mac.dcf frameSequenceActive:vector ETV
attr interpolationmode sample-hold
attr source count(frameSequenceStarted)-count(frameSequenceFinished)
attr title "frame sequence active, vector"
vector 113 mobilityDrones.quads[1].wlan[0].radio transmissionState:vector ETV
attr interpolationmode sample-hold
attr source transmissionStateChanged
attr title "Radio transmission state, vector"
vector 114 mobilityDrones.quads[1].wlan[0].mac.dcf packetSentToPeer:vector(packetBytes) ETV
attr interpolationmode none
attr title "packets sent, vector(packetBytes)"
vector 115 mobilityDrones.quads[1].wlan[0].mac.dcf packetSentToPeerMulticast:vector(packetBytes) ETV
attr interpolationmode none
attr source ieee80211Multicast(packetSentToPeer)
attr title "packets sent: multicast, vector(packetBytes)"
vector 116 mobilityDrones.quads[1].wlan[0].mac.dcf packetSentToPeerWithoutRetry:vector(packetBytes) ETV
attr interpolationmode none
attr source ieee80211NotRetry(packetSentToPeer)
attr title "packets sent: without retry, vector(packetBytes)"
vector 117 mobilityDrones.quads[1].wlan[0].mac.dcf.channelAccess.inProgressFrames queueingTime:vector ETV
attr interpolationmode none
attr source queueingTime(packetDequeued)
attr title "queueing times, vector"
vector 118 mobilityDrones.quads[2].wlan[0].mac packetDrop:vector(packetBytes) ETV
attr interpolationmode none
attr source packetDropped
attr title "packet drops, vector(packetBytes)"
vector 119 mobilityDrones.quads[2].wlan[0].mac packetDropIncorrectlyReceived:vector(packetBytes) ETV
attr interpolationmode none
attr source packetDropReasonIsIncorrectlyReceived(packetDropped)
attr title "packet drops: incorrectly received, vector(packetBytes)"
vector 120 mobilityDrones.groundStation.wlan[0].mac packetDrop:vector(packetBytes) ETV
attr interpolationmode none
attr source packetDropped
attr title "packet drops, vector(packetBytes)"
vector 121 mobilityDrones.groundStation.wlan[0].mac packetDropIncorrectlyReceived:vector(packetBytes) ETV
attr interpolationmode none
attr source packetDropReasonIsIncorrectlyReceived(packetDropped)
attr title "packet drops: incorrectly received, vector(packetBytes)"
vector 122 mobilityDrones.sensors[0].wlan[0].mac packetReceivedFromLower:vector(packetBytes) ETV
attr interpolationmode none
attr title "packets received from lower layer, vector(packetBytes)"
vector 123 mobilityDrones.sensors[0].wlan[0].mac.dcf packetReceivedFromPeer:vector(packetBytes) ETV
attr interpolationmode none
attr title "packets received, vector(packetBytes)"
vector 124 mobilityDrones.sensors[0].wlan[0].mac.dcf packetReceivedFromPeerMulticast:vector(packetBytes) ETV
attr interpolationmode none
attr source ieee80211Multicast(packetReceivedFromPeer)
attr title "packets received: multicast, vector(packetBytes)"
vector 125 mobilityDrones.sensors[0].wlan[0].mac.dcf packetReceivedFromPeerWithoutRetry:vector(packetBytes) ETV
attr interpolationmode none
attr source ieee80211NotRetry(packetReceivedFromPeer)
attr title "packets received: without retry, vector(packetBytes)"
vector 126 mobilityDrones.sensors[0].wlan[0].mac packetSentToUpper:vector(packetBytes) ETV
attr interpolationmode none
attr title "packets sent to upper layer, vector(packetBytes)"
vector 127 mobilityDrones.sensors[0].udp packetReceived:vector(packetBytes) ETV
attr interpolationmode none
attr source packetReceived
attr title "packets received, vector(packetBytes)"
vector 128 mobilityDrones.sensors[0].udp passedUpPk:vector(count) ETV
attr interpolationmode none
attr source packetSentToUpper
attr title "packets passed up, vector(count)"
vector 129 mobilityDrones.sensors[0].app[0] packetReceived:vector(packetBytes) ETV
attr interpolationmode none
attr source packetReceived
attr title "packets received, vector(packetBytes)"
vector 130 mobilityDrones.sensors[0].app[0] throughput:vector ETV
attr source throughput(packetReceived)
attr title "throughput, vector"
attr unit bps
vector 131 mobilityDrones.sensors[0].app[0] rcvdPkLifetime:vector ETV
attr interpolationmode none
attr source dataAge(packetReceived)
attr title "received packet lifetime, vector"
attr unit s
vector 132 mobilityDrones.sensors[0].app[0] packetSent:vector(packetBytes) ETV
attr interpolationmode none
attr source packetSent
attr title "packets sent, vector(packetBytes)"
vector 133 mobilityDrones.sensors[0].udp packetSent:vector(packetBytes) ETV
attr interpolationmode none
attr source packetSent
attr title "packets sent, vector(packetBytes)"
vector 134 mobilityDrones.sensors[0].ipv4.arp arpRequestSent:vector(packetBytes) ETV
attr source arpRequestSent
attr title "ARP request sent, vector(packetBytes)"
vector 135 mobilityDrones.sensors[0].wlan[0].mac packetReceivedFromUpper:vector(packetBytes) ETV
attr interpolationmode none
attr title "packets received from upper layer, vector(packetBytes)"
vector 136 mobilityDrones.sensors[0].wlan[0].mac.dcf.channelAccess.pendingQueue packetPushed:vector(packetBytes) ETV
attr interpolationmode none
attr title "packet pushed, vector(packetBytes)"
vector 137 mobilityDrones.sensors[0].wlan[0].mac.dcf.channelAccess.pendingQueue queueLength:vector ETV
attr interpolationmode sample-hold
attr source "count(packetPushed) - count(packetPopped) - count(packetRemoved) - count(packetDropped)"
attr title "queue length, vector"
vector 138 mobilityDrones.sensors[0].wlan[0].mac.dcf.channelAccess.contention backoffPeriodGenerated:vector ETV
attr interpolationmode none
attr title "backoff periods, vector"
vector 139 mobilityDrones.sensors[0].wlan[0].mac.dcf.channelAccess.contention backoffActive:vector ETV
attr interpolationmode sample-hold
attr source count(backoffStarted)-count(backoffStopped)
attr title "backoff active, vector"
vector 140 mobilityDrones.sensors[0].wlan[0].mac.dcf.channelAccess.pendingQueue packetPopped:vector(packetBytes) ETV
attr interpolationmode none
attr title "packet popped, vector(packetBytes)"
vector 141 mobilityDrones.sensors[0].wlan[0].mac.dcf.channelAccess.pendingQueue queueingTime:vector ETV
attr interpolationmode none
attr source queueingTime(packetPopped)
attr title "queueing times, vector"
attr unit s
vector 142 mobilityDrones.sensors[0].wlan[0].mac.dcf.channelAccess.inProgressFrames queueLength:vector ETV
attr interpolationmode sample-hold
attr source "count(packetEnqueued) - count(packetDequeued)"
attr title "queue length, vector"
vector 143 mobilityDrones.sensors[0].wlan[0].mac.dcf datarateSelected:vector ETV
attr interpolationmode none
attr title "datarates selected, vector"
vector 144 mobilityDrones.sensors[0].wlan[0].mac packetSentToLower:vector(packetBytes) ETV
attr interpolationmode none
attr title "packets sent to lower layer, vector(packetBytes)"
vector 145 mobilityDrones.sensors[0].wlan[0].mac.dcf frameSequenceActive:vector ETV
attr interpolationmode sample-hold
attr source count(frameSequenceStarted)-count(frameSequenceFinished)
attr title "frame sequence active, vector"
vector 146 mobilityDrones.sensors[0].wlan[0].radio transmissionState:vector ETV
attr interpolationmode sample-hold
attr source transmissionStateChanged
attr title "Radio transmission state, vector"
vector 147 mobilityDrones.sensors[0].wlan[0].mac.dcf packetSentToPeer:vector(packetBytes) ETV
attr interpolationmode none
attr title "packets sent, vector(packetBytes)"
vector 148 mobilityDrones.sensors[0].wlan[0].mac.dcf packetSentToPeerMulticast:vector(packetBytes) ETV
attr interpolationmode none
attr source ieee80211Multicast(packetSentToPeer)
attr title "packets sent: multicast, vector(packetBytes)"
vector 149 mobilityDrones.sensors[0].wlan[0].mac.dcf packetSentToPeerBroadcast:vector(packetBytes) ETV
attr interpolationmode none
attr source ieee80211Broadcast(packetSentToPeer)
attr title "packets sent: broadcast , vector(packetBytes)"
vector 150 mobilityDrones.sensors[0].wlan[0].mac.dcf packetSentToPeerWithoutRetry:vector(packetBytes) ETV
attr interpolationmode none
attr source ieee80211NotRetry(packetSentToPeer)
attr title "packets sent: without retry, vector(packetBytes)"
vector 151 mobilityDrones.sensors[0].wlan[0].mac.dcf.channelAccess.inProgressFrames queueingTime:vector ETV
attr interpolationmode none
attr source queueingTime(packetDequeued)
attr title "queueing times, vector"
vector 152 mobilityDrones.quads[0].wlan[0].mac packetReceivedFromLower:vector(packetBytes) ETV
attr interpolationmode none
attr title "packets received from lower layer, vector(packetBytes)"
vector 153 mobilityDrones.quads[0].wlan[0].mac packetDrop:vector(packetBytes) ETV
attr interpolationmode none
attr source packetDropped
attr title "packet drops, vector(packetBytes)"
vector 154 mobilityDrones.quads[0].wlan[0].mac packetDropIncorrectlyReceived:vector(packetBytes) ETV
attr interpolationmode none
attr source packetDropReasonIsIncorrectlyReceived(packetDropped)
attr title "packet drops: incorrectly received, vector(packetBytes)"
vector 155 mobilityDrones.quads[0].wlan[0].mac.dcf packetReceivedFromPeer:vector(packetBytes) ETV
attr interpolationmode none
attr title "packets received, vector(packetBytes)"
vector 156 mobilityDrones.quads[0].wlan[0].mac.dcf packetReceivedFromPeerMulticast:vector(packetBytes) ETV
attr interpolationmode none
attr source ieee80211Multicast(packetReceivedFromPeer)
attr title "packets received: multicast, vector(packetBytes)"
vector 157 mobilityDrones.quads[0].wlan[0].mac.dcf packetReceivedFromPeerBroadcast:vector(packetBytes) ETV
attr interpolationmode none
attr source ieee80211Broadcast(packetReceivedFromPeer)
attr title "packets received: broadcast, vector(packetBytes)"
vector 158 mobilityDrones.quads[0].wlan[0].mac.dcf packetReceivedFromPeerWithoutRetry:vector(packetBytes) ETV
attr interpolationmode none
attr source ieee80211NotRetry(packetReceivedFromPeer)
attr title "packets received: without retry, vector(packetBytes)"
vector 159 mobilityDrones.quads[0].wlan[0].mac packetSentToUpper:vector(packetBytes) ETV
attr interpolationmode none
attr title "packets sent to upper layer, vector(packetBytes)"
vector 160 mobilityDrones.quads[0].ipv4.arp arpReplySent:vector(packetBytes) ETV
attr source arpReplySent
attr title "ARP replies sent, vector(packetBytes)"
vector 161 mobilityDrones.quads[0].wlan[0].mac.dcf packetSentToPeerUnicast:vector(packetBytes) ETV
attr interpolationmode none
attr source ieee80211Unicast(packetSentToPeer)
attr title "packets sent: unicast, vector(packetBytes)"
vector 162 mobilityDrones.quads[0].wlan[0].mac.rx nav:vector ETV
attr interpolationmode linear
attr source navChanged
attr title "network allocation vector, vector"
vector 163 mobilityDrones.sensors[0].wlan[0].mac.dcf packetReceivedFromPeerUnicast:vector(packetBytes) ETV
attr interpolationmode none
attr source ieee80211Unicast(packetReceivedFromPeer)
attr title "packets received: unicast, vector(packetBytes)"
vector 164 mobilityDrones.sensors[0].wlan[0].mac.dcf packetSentToPeerUnicast:vector(packetBytes) ETV
attr interpolationmode none
attr source ieee80211Unicast(packetSentToPeer)
attr title "packets sent: unicast, vector(packetBytes)"
vector 165 mobilityDrones.quads[0].wlan[0].mac.dcf packetReceivedFromPeerUnicast:vector(packetBytes) ETV
attr interpolationmode none
attr source ieee80211Unicast(packetReceivedFromPeer)
attr title "packets received: unicast, vector(packetBytes)"
vector 166 mobilityDrones.sensors[0].wlan[0].mac.rx nav:vector ETV
attr interpolationmode linear
attr source navChanged
attr title "network allocation vector, vector"
vector 167 mobilityDrones.quads[0].app[0] packetReceived:vector(packetBytes) ETV
attr interpolationmode none
attr source packetReceived
attr title "packets received, vector(packetBytes)"
vector 168 mobilityDrones.quads[0].app[0] throughput:vector ETV
attr source throughput(packetReceived)
attr title "throughput, vector"
attr unit bps
vector 169 mobilityDrones.quads[0].app[0] rcvdPkLifetime:vector ETV
attr interpolationmode none
attr source dataAge(packetReceived)
attr title "received packet lifetime, vector"
attr unit s
vector 170 mobilityDrones.quads[2].app[0] packetSent:vector(packetBytes) ETV
attr interpolationmode none
attr source packetSent
attr title "packets sent, vector(packetBytes)"
vector 171 mobilityDrones.quads[2].udp packetSent:vector(packetBytes) ETV
attr interpolationmode none
attr source packetSent
attr title "packets sent, vector(packetBytes)"
vector 172 mobilityDrones.quads[2].lo[0].lo rcvdPkFromHl:vector(packetBytes) ETV
attr interpolationmode none
attr source packetReceivedFromUpper
attr title "packets received from higher layer, vector(packetBytes)"
vector 173 mobilityDrones.quads[2].lo[0].lo passedUpPk:vector(packetBytes) ETV
attr interpolationmode none
attr source packetSentToUpper
attr title "packets passed to higher layer, vector(packetBytes)"
vector 174 mobilityDrones.quads[2].wlan[0].mac packetReceivedFromUpper:vector(packetBytes) ETV
attr interpolationmode none
attr title "packets received from upper layer, vector(packetBytes)"
vector 175 mobilityDrones.quads[2].wlan[0].mac.dcf.channelAccess.pendingQueue packetPushed:vector(packetBytes) ETV
attr interpolationmode none
attr title "packet pushed, vector(packetBytes)"
vector 176 mobilityDrones.quads[2].wlan[0].mac.dcf.channelAccess.pendingQueue queueLength:vector ETV
attr interpolationmode sample-hold
attr source "count(packetPushed) - count(packetPopped) - count(packetRemoved) - count(packetDropped)"
attr title "queue length, vector"
vector 177 mobilityDrones.quads[2].wlan[0].mac.dcf.channelAccess.contention backoffPeriodGenerated:vector ETV
attr interpolationmode none
attr title "backoff periods, vector"
vector 178 mobilityDrones.quads[2].wlan[0].mac.dcf.channelAccess.contention backoffActive:vector ETV
attr interpolationmode sample-hold
attr source count(backoffStarted)-count(backoffStopped)
attr title "backoff active, vector"
vector 179 mobilityDrones.quads[2].udp packetReceived:vector(packetBytes) ETV
attr interpolationmode none
attr source packetReceived
attr title "packets received, vector(packetBytes)"
vector 180 mobilityDrones.quads[2].udp passedUpPk:vector(count) ETV
attr interpolationmode none
attr source packetSentToUpper
attr title "packets passed up, vector(count)"
vector 181 mobilityDrones.quads[2].wlan[0].mac.dcf.channelAccess.pendingQueue packetPopped:vector(packetBytes) ETV
attr interpolationmode none
attr title "packet popped, vector(packetBytes)"
vector 182 mobilityDrones.quads[2].wlan[0].mac.dcf.channelAccess.pendingQueue queueingTime:vector ETV
attr interpolationmode none
attr source queueingTime(packetPopped)
attr title "queueing times, vector"
attr unit s
vector 183 mobilityDrones.quads[2].wlan[0].mac.dcf.channelAccess.inProgressFrames queueLength:vector ETV
attr interpolationmode sample-hold
attr source "count(packetEnqueued) - count(packetDequeued)"
attr title "queue length, vector"
vector 184 mobilityDrones.quads[2].wlan[0].mac.dcf datarateSelected:vector ETV
attr interpolationmode none
attr title "datarates selected, vector"
vector 185 mobilityDrones.quads[2].wlan[0].mac packetSentToLower:vector(packetBytes) ETV
attr interpolationmode none
attr title "packets sent to lower layer, vector(packetBytes)"
vector 186 mobilityDrones.quads[2].wlan[0].mac.dcf frameSequenceActive:vector ETV
attr interpolationmode sample-hold
attr source count(frameSequenceStarted)-count(frameSequenceFinished)
attr title "frame sequence active, vector"
vector 187 mobilityDrones.quads[2].wlan[0].radio transmissionState:vector ETV
attr interpolationmode sample-hold
attr source transmissionStateChanged
attr title "Radio transmission state, vector"
vector 188 mobilityDrones.quads[2].wlan[0].mac.dcf packetSentToPeer:vector(packetBytes) ETV
attr interpolationmode none
attr title "packets sent, vector(packetBytes)"
vector 189 mobilityDrones.quads[2].wlan[0].mac.dcf packetSentToPeerMulticast:vector(packetBytes) ETV
attr interpolationmode none
attr source ieee80211Multicast(packetSentToPeer)
attr title "packets sent: multicast, vector(packetBytes)"
vector 190 mobilityDrones.quads[2].wlan[0].mac.dcf packetSentToPeerWithoutRetry:vector(packetBytes) ETV
attr interpolationmode none
attr source ieee80211NotRetry(packetSentToPeer)
attr title "packets sent: without retry, vector(packetBytes)"
vector 191 mobilityDrones.quads[2].wlan[0].mac.dcf.channelAccess.inProgressFrames queueingTime:vector ETV
attr interpolationmode none
attr source queueingTime(packetDequeued)
attr title "queueing times, vector"
vector 192 mobilityDrones.quads[3].app[0] packetSent:vector(packetBytes) ETV
attr interpolationmode none
attr source packetSent
attr title "packets sent, vector(packetBytes)"
vector 193 mobilityDrones.quads[3].udp packetSent:vector(packetBytes) ETV
attr interpolationmode none
attr source packetSent
attr title "packets sent, vector(packetBytes)"
vector 194 mobilityDrones.quads[3].lo[0].lo rcvdPkFromHl:vector(packetBytes) ETV
attr interpolationmode none
attr source packetReceivedFromUpper
attr title "packets received from higher layer, vector(packetBytes)"
vector 195 mobilityDrones.quads[3].lo[0].lo passedUpPk:vector(packetBytes) ETV
attr interpolationmode none
attr source packetSentToUpper
attr title "packets passed to higher layer, vector(packetBytes)"
vector 196 mobilityDrones.quads[3].wlan[0].mac packetReceivedFromUpper:vector(packetBytes) ETV
attr interpolationmode none
attr title "packets received from upper layer, vector(packetBytes)"
vector 197 mobilityDrones.quads[3].wlan[0].mac.dcf.channelAccess.pendingQueue packetPushed:vector(packetBytes) ETV
attr interpolationmode none
attr title "packet pushed, vector(packetBytes)"
vector 198 mobilityDrones.quads[3].wlan[0].mac.dcf.channelAccess.pendingQueue queueLength:vector ETV
attr interpolationmode sample-hold
attr source "count(packetPushed) - count(packetPopped) - count(packetRemoved) - count(packetDropped)"
attr title "queue length, vector"
vector 199 mobilityDrones.quads[3].wlan[0].mac.dcf.channelAccess.contention backoffPeriodGenerated:vector ETV
attr interpolationmode none
attr title "backoff periods, vector"
vector 200 mobilityDrones.quads[3].wlan[0].mac.dcf.channelAccess.contention backoffActive:vector ETV
attr interpolationmode sample-hold
attr source count(backoffStarted)-count(backoffStopped)
attr title "backoff active, vector"
vector 201 mobilityDrones.quads[3].udp packetReceived:vector(packetBytes) ETV
attr interpolationmode none
attr source packetReceived
attr title "packets received, vector(packetBytes)"
vector 202 mobilityDrones.quads[3].udp passedUpPk:vector(count) ETV
attr interpolationmode none
attr source packetSentToUpper
attr title "packets passed up, vector(count)"
vector 203 mobilityDrones.quads[3].wlan[0].mac.dcf.channelAccess.pendingQueue packetPopped:vector(packetBytes) ETV
attr interpolationmode none
attr title "packet popped, vector(packetBytes)"
vector 204 mobilityDrones.quads[3].wlan[0].mac.dcf.channelAccess.pendingQueue queueingTime:vector ETV
attr interpolationmode none
attr source queueingTime(packetPopped)
attr title "queueing times, vector"
attr unit s
vector 205 mobilityDrones.quads[3].wlan[0].mac.dcf.channelAccess.inProgressFrames queueLength:vector ETV
attr interpolationmode sample-hold
attr source "count(packetEnqueued) - count(packetDequeued)"
attr title "queue length, vector"
vector 206 mobilityDrones.quads[3].wlan[0].mac.dcf datarateSelected:vector ETV
attr interpolationmode none
attr title "datarates selected, vector"
vector 207 mobilityDrones.quads[3].wlan[0].mac packetSentToLower:vector(packetBytes) ETV
attr interpolationmode none
attr title "packets sent to lower layer, vector(packetBytes)"
vector 208 mobilityDrones.quads[3].wlan[0].mac.dcf frameSequenceActive:vector ETV
attr interpolationmode sample-hold
attr source count(frameSequenceStarted)-count(frameSequenceFinished)
attr title "frame sequence active, vector"
vector 209 mobilityDrones.quads[3].wlan[0].radio transmissionState:vector ETV
attr interpolationmode sample-hold
attr source transmissionStateChanged
attr title "Radio transmission state, vector"
vector 210 mobilityDrones.quads[3].wlan[0].mac.dcf packetSentToPeer:vector(packetBytes) ETV
attr interpolationmode none
attr title "packets sent, vector(packetBytes)"
vector 211 mobilityDrones.quads[3].wlan[0].mac.dcf packetSentToPeerMulticast:vector(packetBytes) ETV
attr interpolationmode none
attr source ieee80211Multicast(packetSentToPeer)
attr title "packets sent: multicast, vector(packetBytes)"
vector 212 mobilityDrones.quads[3].wlan[0].mac.dcf packetSentToPeerWithoutRetry:vector(packetBytes) ETV
attr interpolationmode none
attr source ieee80211NotRetry(packetSentToPeer)
attr title "packets sent: without retry, vector(packetBytes)"
vector 213 mobilityDrones.quads[3].wlan[0].mac.dcf.channelAccess.inProgressFrames queueingTime:vector ETV
attr interpolationmode none
attr source queueingTime(packetDequeued)
attr title "queueing times, vector"
vector 214 mobilityDrones.sensors[1].wlan[0].mac packetReceivedFromLower:vector(packetBytes) ETV
attr interpolationmode none
attr title "packets received from lower layer, vector(packetBytes)"
vector 215 mobilityDrones.sensors[1].wlan[0].mac.dcf packetReceivedFromPeer:vector(packetBytes) ETV
attr interpolationmode none
attr title "packets received, vector(packetBytes)"
vector 216 mobilityDrones.sensors[1].wlan[0].mac.dcf packetReceivedFromPeerMulticast:vector(packetBytes) ETV
attr interpolationmode none
attr source ieee80211Multicast(packetReceivedFromPeer)
attr title "packets received: multicast, vector(packetBytes)"
vector 217 mobilityDrones.sensors[1].wlan[0].mac.dcf packetReceivedFromPeerWithoutRetry:vector(packetBytes) ETV
attr interpolationmode none
attr source ieee80211NotRetry(packetReceivedFromPeer)
attr title "packets received: without retry, vector(packetBytes)"
vector 218 mobilityDrones.sensors[1].wlan[0].mac packetSentToUpper:vector(packetBytes) ETV
attr interpolationmode none
attr title "packets sent to upper layer, vector(packetBytes)"
vector 219 mobilityDrones.sensors[1].udp packetReceived:vector(packetBytes) ETV
attr interpolationmode none
attr source packetReceived
attr title "packets received, vector(packetBytes)"
vector 220 mobilityDrones.sensors[1].udp passedUpPk:vector(count) ETV
attr interpolationmode none
attr source packetSentToUpper
attr title "packets passed up, vector(count)"
vector 221 mobilityDrones.sensors[1].app[0] packetReceived:vector(packetBytes) ETV
attr interpolationmode none
attr source packetReceived
attr title "packets received, vector(packetBytes)"
vector 222 mobilityDrones.sensors[1].app[0] throughput:vector ETV
attr source throughput(packetReceived)
attr title "throughput, vector"
attr unit bps
vector 223 mobilityDrones.sensors[1].app[0] rcvdPkLifetime:vector ETV
attr interpolationmode none
attr source dataAge(packetReceived)
attr title "received packet lifetime, vector"
attr unit s
vector 224 mobilityDrones.sensors[1].app[0] packetSent:vector(packetBytes) ETV
attr interpolationmode none
attr source packetSent
attr title "packets sent, vector(packetBytes)"
vector 225 mobilityDrones.sensors[1].udp packetSent:vector(packetBytes) ETV
attr interpolationmode none
attr source packetSent
attr title "packets sent, vector(packetBytes)"
vector 226 mobilityDrones.sensors[1].ipv4.arp arpRequestSent:vector(packetBytes) ETV
attr source arpRequestSent
attr title "ARP request sent, vector(packetBytes)"
vector 227 mobilityDrones.sensors[1].wlan[0].mac packetReceivedFromUpper:vector(packetBytes) ETV
attr interpolationmode none
attr title "packets received from upper layer, vector(packetBytes)"
vector 228 mobilityDrones.sensors[1].wlan[0].mac.dcf.channelAccess.pendingQueue packetPushed:vector(packetBytes) ETV
attr interpolationmode none
attr title "packet pushed, vector(packetBytes)"
vector 229 mobilityDrones.sensors[1].wlan[0].mac.dcf.channelAccess.pendingQueue queueLength:vector ETV
attr interpolationmode sample-hold
attr source "count(packetPushed) - count(packetPopped) - count(packetRemoved) - count(packetDropped)"
attr title "queue length, vector"
vector 230 mobilityDrones.sensors[1].wlan[0].mac.dcf.channelAccess.contention backoffPeriodGenerated:vector ETV
attr interpolationmode none
attr title "backoff periods, vector"
vector 231 mobilityDrones.sensors[1].wlan[0].mac.dcf.channelAccess.contention backoffActive:vector ETV
attr interpolationmode sample-hold
attr source count(backoffStarted)-count(backoffStopped)
attr title "backoff active, vector"
vector 232 mobilityDrones.sensors[1].wlan[0].mac.dcf.channelAccess.pendingQueue packetPopped:vector(packetBytes) ETV
attr interpolationmode none
attr title "packet popped, vector(packetBytes)"
vector 233 mobilityDrones.sensors[1].wlan[0].mac.dcf.channelAccess.pendingQueue queueingTime:vector ETV
attr interpolationmode none
attr source queueingTime(packetPopped)
attr title "queueing times, vector"
attr unit s
vector 234 mobilityDrones.sensors[1].wlan[0].mac.dcf.channelAccess.inProgressFrames queueLength:vector ETV
attr interpolationmode sample-hold
attr source "count(packetEnqueued) - count(packetDequeued)"
attr title "queue length, vector"
vector 235 mobilityDrones.sensors[1].wlan[0].mac.dcf datarateSelected:vector ETV
attr interpolationmode none
attr title "datarates selected, vector"
vector 236 mobilityDrones.sensors[1].wlan[0].mac packetSentToLower:vector(packetBytes) ETV
attr interpolationmode none
attr title "packets sent to lower layer, vector(packetBytes)"
vector 237 mobilityDrones.sensors[1].wlan[0].mac.dcf frameSequenceActive:vector ETV
attr interpolationmode sample-hold
attr source count(frameSequenceStarted)-count(frameSequenceFinished)
attr title "frame sequence active, vector"
vector 238 mobilityDrones.sensors[1].wlan[0].radio transmissionState:vector ETV
attr interpolationmode sample-hold
attr source transmissionStateChanged
attr title "Radio transmission state, vector"
vector 239 mobilityDrones.sensors[1].wlan[0].mac.dcf packetSentToPeer:vector(packetBytes) ETV
attr interpolationmode none
attr title "packets sent, vector(packetBytes)"
vector 240 mobilityDrones.sensors[1].wlan[0].mac.dcf packetSentToPeerMulticast:vector(packetBytes) ETV
attr interpolationmode none
attr source ieee80211Multicast(packetSentToPeer)
attr title "packets sent: multicast, vector(packetBytes)"
vector 241 mobilityDrones.sensors[1].wlan[0].mac.dcf packetSentToPeerBroadcast:vector(packetBytes) ETV
attr interpolationmode none
attr source ieee80211Broadcast(packetSentToPeer)
attr title "packets sent: broadcast , vector(packetBytes)"
vector 242 mobilityDrones.sensors[1].wlan[0].mac.dcf packetSentToPeerWithoutRetry:vector(packetBytes) ETV
attr interpolationmode none
attr source ieee80211NotRetry(packetSentToPeer)
attr title "packets sent: without retry, vector(packetBytes)"
vector 243 mobilityDrones.sensors[1].wlan[0].mac.dcf.channelAccess.inProgressFrames queueingTime:vector ETV
attr interpolationmode none
attr source queueingTime(packetDequeued)
attr title "queueing times, vector"
vector 244 mobilityDrones.sensors[3].wlan[0].mac packetReceivedFromLower:vector(packetBytes) ETV
attr interpolationmode none
attr title "packets received from lower layer, vector(packetBytes)"
vector 245 mobilityDrones.sensors[3].wlan[0].mac packetDrop:vector(packetBytes) ETV
attr interpolationmode none
attr source packetDropped
attr title "packet drops, vector(packetBytes)"
vector 246 mobilityDrones.sensors[3].wlan[0].mac packetDropIncorrectlyReceived:vector(packetBytes) ETV
attr interpolationmode none
attr source packetDropReasonIsIncorrectlyReceived(packetDropped)
attr title "packet drops: incorrectly received, vector(packetBytes)"
vector 247 mobilityDrones.sensors[1].wlan[0].mac.dcf packetReceivedFromPeerUnicast:vector(packetBytes) ETV
attr interpolationmode none
attr source ieee80211Unicast(packetReceivedFromPeer)
attr title "packets received: unicast, vector(packetBytes)"
vector 248 mobilityDrones.sensors[1].wlan[0].mac.dcf packetSentToPeerUnicast:vector(packetBytes) ETV
attr interpolationmode none
attr source ieee80211Unicast(packetSentToPeer)
attr title "packets sent: unicast, vector(packetBytes)"
vector 249 mobilityDrones.sensors[3].wlan[0].mac.dcf packetDrop:vector(packetBytes) ETV
attr interpolationmode none
attr source packetDropped
attr title "packet drops, vector(packetBytes)"
vector 250 mobilityDrones.sensors[3].wlan[0].mac.dcf packetDropNotAddressedToUs:vector(packetBytes) ETV
attr interpolationmode none
attr source packetDropReasonIsNotAddressedToUs(packetDropped)
attr title "packet drops: not addressed to us, vector(packetBytes)"
vector 251 mobilityDrones.sensors[3].wlan[0].mac packetDropNotAddressedToUs:vector(packetBytes) ETV
attr interpolationmode none
attr source packetDropReasonIsNotAddressedToUs(packetDropped)
attr title "packet drops: not addressed to us, vector(packetBytes)"
vector 252 mobilityDrones.sensors[1].wlan[0].mac.rx nav:vector ETV
attr interpolationmode linear
attr source navChanged
attr title "network allocation vector, vector"
vector 253 mobilityDrones.sensors[3].wlan[0].mac.dcf packetReceivedFromPeer:vector(packetBytes) ETV
attr interpolationmode none
attr title "packets received, vector(packetBytes)"
vector 254 mobilityDrones.sensors[3].wlan[0].mac.dcf packetReceivedFromPeerMulticast:vector(packetBytes) ETV
attr interpolationmode none
attr source ieee80211Multicast(packetReceivedFromPeer)
attr title "packets received: multicast, vector(packetBytes)"
vector 255 mobilityDrones.sensors[3].wlan[0].mac.dcf packetReceivedFromPeerWithoutRetry:vector(packetBytes) ETV
attr interpolationmode none
attr source ieee80211NotRetry(packetReceivedFromPeer)
attr title "packets received: without retry, vector(packetBytes)"
vector 256 mobilityDrones.sensors[3].wlan[0].mac packetSentToUpper:vector(packetBytes) ETV
attr interpolationmode none
attr title "packets sent to upper layer, vector(packetBytes)"
vector 257 mobilityDrones.sensors[3].udp packetReceived:vector(packetBytes) ETV
attr interpolationmode none
attr source packetReceived
attr title "packets received, vector(packetBytes)"
vector 258 mobilityDrones.sensors[3].udp passedUpPk:vector(count) ETV
attr interpolationmode none
attr source packetSentToUpper
attr title "packets passed up, vector(count)"
vector 259 mobilityDrones.sensors[3].app[0] packetReceived:vector(packetBytes) ETV
attr interpolationmode none
attr source packetReceived
attr title "packets received, vector(packetBytes)"
vector 260 mobilityDrones.sensors[3].app[0] throughput:vector ETV
attr source throughput(packetReceived)
attr title "throughput, vector"
attr unit bps
vector 261 mobilityDrones.sensors[3].app[0] rcvdPkLifetime:vector ETV
attr interpolationmode none
attr source dataAge(packetReceived)
attr title "received packet lifetime, vector"
attr unit s
vector 262 mobilityDrones.sensors[3].app[0] packetSent:vector(packetBytes) ETV
attr interpolationmode none
attr source packetSent
attr title "packets sent, vector(packetBytes)"
vector 263 mobilityDrones.sensors[3].udp packetSent:vector(packetBytes) ETV
attr interpolationmode none
attr source packetSent
attr title "packets sent, vector(packetBytes)"
vector 264 mobilityDrones.sensors[3].ipv4.arp arpRequestSent:vector(packetBytes) ETV
attr source arpRequestSent
attr title "ARP request sent, vector(packetBytes)"
vector 265 mobilityDrones.sensors[3].wlan[0].mac packetReceivedFromUpper:vector(packetBytes) ETV
attr interpolationmode none
attr title "packets received from upper layer, vector(packetBytes)"
vector 266 mobilityDrones.sensors[3].wlan[0].mac.dcf.channelAccess.pendingQueue packetPushed:vector(packetBytes) ETV
attr interpolationmode none
attr title "packet pushed, vector(packetBytes)"
vector 267 mobilityDrones.sensors[3].wlan[0].mac.dcf.channelAccess.pendingQueue queueLength:vector ETV
attr interpolationmode sample-hold
attr source "count(packetPushed) - count(packetPopped) - count(packetRemoved) - count(packetDropped)"
attr title "queue length, vector"
vector 268 mobilityDrones.sensors[3].wlan[0].mac.dcf.channelAccess.contention backoffPeriodGenerated:vector ETV
attr interpolationmode none
attr title "backoff periods, vector"
vector 269 mobilityDrones.sensors[3].wlan[0].mac.dcf.channelAccess.contention backoffActive:vector ETV
attr interpolationmode sample-hold
attr source count(backoffStarted)-count(backoffStopped)
attr title "backoff active, vector"
vector 270 mobilityDrones.sensors[3].wlan[0].mac.dcf.channelAccess.pendingQueue packetPopped:vector(packetBytes) ETV
attr interpolationmode none
attr title "packet popped, vector(packetBytes)"
vector 271 mobilityDrones.sensors[3].wlan[0].mac.dcf.channelAccess.pendingQueue queueingTime:vector ETV
attr interpolationmode none
attr source queueingTime(packetPopped)
attr title "queueing times, vector"
attr unit s
vector 272 mobilityDrones.sensors[3].wlan[0].mac.dcf.channelAccess.inProgressFrames queueLength:vector ETV
attr interpolationmode sample-hold
attr source "count(packetEnqueued) - count(packetDequeued)"
attr title "queue length, vector"
vector 273 mobilityDrones.sensors[3].wlan[0].mac.dcf datarateSelected:vector ETV
attr interpolationmode none
attr title "datarates selected, vector"
vector 274 mobilityDrones.sensors[3].wlan[0].mac packetSentToLower:vector(packetBytes) ETV
attr interpolationmode none
attr title "packets sent to lower layer, vector(packetBytes)"
vector 275 mobilityDrones.sensors[3].wlan[0].mac.dcf frameSequenceActive:vector ETV
attr interpolationmode sample-hold
attr source count(frameSequenceStarted)-count(frameSequenceFinished)
attr title "frame sequence active, vector"
vector 276 mobilityDrones.sensors[3].wlan[0].radio transmissionState:vector ETV
attr interpolationmode sample-hold
attr source transmissionStateChanged
attr title "Radio transmission state, vector"
vector 277 mobilityDrones.sensors[3].wlan[0].mac.dcf packetSentToPeer:vector(packetBytes) ETV
attr interpolationmode none
attr title "packets sent, vector(packetBytes)"
vector 278 mobilityDrones.sensors[3].wlan[0].mac.dcf packetSentToPeerMulticast:vector(packetBytes) ETV
attr interpolationmode none
attr source ieee80211Multicast(packetSentToPeer)
attr title "packets sent: multicast, vector(packetBytes)"
vector 279 mobilityDrones.sensors[3].wlan[0].mac.dcf packetSentToPeerBroadcast:vector(packetBytes) ETV
attr interpolationmode none
attr source ieee80211Broadcast(packetSentToPeer)
attr title "packets sent: broadcast , vector(packetBytes)"
vector 280 mobilityDrones.sensors[3].wlan[0].mac.dcf packetSentToPeerWithoutRetry:vector(packetBytes) ETV
attr interpolationmode none
attr source ieee80211NotRetry(packetSentToPeer)
attr title "packets sent: without retry, vector(packetBytes)"
vector 281 mobilityDrones.sensors[3].wlan[0].mac.dcf.channelAccess.inProgressFrames queueingTime:vector ETV
attr interpolationmode none
attr source queueingTime(packetDequeued)
attr title "queueing times, vector"
vector 282 mobilityDrones.sensors[6].wlan[0].mac packetReceivedFromLower:vector(packetBytes) ETV
attr interpolationmode none
attr title "packets received from lower layer, vector(packetBytes)"
vector 283 mobilityDrones.sensors[6].wlan[0].mac.dcf packetReceivedFromPeer:vector(packetBytes) ETV
attr interpolationmode none
attr title "packets received, vector(packetBytes)"
vector 284 mobilityDrones.sensors[6].wlan[0].mac.dcf packetReceivedFromPeerMulticast:vector(packetBytes) ETV
attr interpolationmode none
attr source ieee80211Multicast(packetReceivedFromPeer)
attr title "packets received: multicast, vector(packetBytes)"
vector 285 mobilityDrones.sensors[6].wlan[0].mac.dcf packetReceivedFromPeerBroadcast:vector(packetBytes) ETV
attr interpolationmode none
attr source ieee80211Broadcast(packetReceivedFromPeer)
attr title "packets received: broadcast, vector(packetBytes)"
vector 286 mobilityDrones.sensors[6].wlan[0].mac.dcf packetReceivedFromPeerWithoutRetry:vector(packetBytes) ETV
attr interpolationmode none
attr source ieee80211NotRetry(packetReceivedFromPeer)
attr title "packets received: without retry, vector(packetBytes)"
vector 287 mobilityDrones.sensors[6].wlan[0].mac packetSentToUpper:vector(packetBytes) ETV
attr interpolationmode none
attr title "packets sent to upper layer, vector(packetBytes)"
vector 288 mobilityDrones.sensors[1].wlan[0].mac packetDrop:vector(packetBytes) ETV
attr interpolationmode none
attr source packetDropped
attr title "packet drops, vector(packetBytes)"
vector 289 mobilityDrones.sensors[1].wlan[0].mac packetDropIncorrectlyReceived:vector(packetBytes) ETV
attr interpolationmode none
attr source packetDropReasonIsIncorrectlyReceived(packetDropped)
attr title "packet drops: incorrectly received, vector(packetBytes)"
vector 290 mobilityDrones.sensors[1].wlan[0].mac.dcf packetDrop:vector(packetBytes) ETV
attr interpolationmode none
attr source packetDropped
attr title "packet drops, vector(packetBytes)"
vector 291 mobilityDrones.sensors[1].wlan[0].mac.dcf packetDropNotAddressedToUs:vector(packetBytes) ETV
attr interpolationmode none
attr source packetDropReasonIsNotAddressedToUs(packetDropped)
attr title "packet drops: not addressed to us, vector(packetBytes)"
vector 292 mobilityDrones.sensors[1].wlan[0].mac packetDropNotAddressedToUs:vector(packetBytes) ETV
attr interpolationmode none
attr source packetDropReasonIsNotAddressedToUs(packetDropped)
attr title "packet drops: not addressed to us, vector(packetBytes)"
vector 293 mobilityDrones.sensors[3].wlan[0].mac.dcf packetReceivedFromPeerUnicast:vector(packetBytes) ETV
attr interpolationmode none
attr source ieee80211Unicast(packetReceivedFromPeer)
attr title "packets received: unicast, vector(packetBytes)"
vector 294 mobilityDrones.sensors[3].wlan[0].mac.dcf packetSentToPeerUnicast:vector(packetBytes) ETV
attr interpolationmode none
attr source ieee80211Unicast(packetSentToPeer)
attr title "packets sent: unicast, vector(packetBytes)"
vector 295 mobilityDrones.sensors[6].wlan[0].mac.dcf packetDrop:vector(packetBytes) ETV
attr interpolationmode none
attr source packetDropped
attr title "packet drops, vector(packetBytes)"
vector 296 mobilityDrones.sensors[6].wlan[0].mac.dcf packetDropNotAddressedToUs:vector(packetBytes) ETV
attr interpolationmode none
attr source packetDropReasonIsNotAddressedToUs(packetDropped)
attr title "packet drops: not addressed to us, vector(packetBytes)"
vector 297 mobilityDrones.sensors[6].wlan[0].mac packetDrop:vector(packetBytes) ETV
attr interpolationmode none
attr source packetDropped
attr title "packet drops, vector(packetBytes)"
vector 298 mobilityDrones.sensors[6].wlan[0].mac packetDropNotAddressedToUs:vector(packetBytes) ETV
attr interpolationmode none
attr source packetDropReasonIsNotAddressedToUs(packetDropped)
attr title "packet drops: not addressed to us, vector(packetBytes)"
vector 299 mobilityDrones.sensors[3].wlan[0].mac.rx nav:vector ETV
attr interpolationmode linear
attr source navChanged
attr title "network allocation vector, vector"
vector 300 mobilityDrones.sensors[6].wlan[0].mac.rx nav:vector ETV
attr interpolationmode linear
attr source navChanged
attr title "network allocation vector, vector"
vector 301 mobilityDrones.quads[3].wlan[0].mac packetDrop:vector(packetBytes) ETV
attr interpolationmode none
attr source packetDropped
attr title "packet drops, vector(packetBytes)"
vector 302 mobilityDrones.quads[3].wlan[0].mac packetDropIncorrectlyReceived:vector(packetBytes) ETV
attr interpolationmode none
attr source packetDropReasonIsIncorrectlyReceived(packetDropped)
attr title "packet drops: incorrectly received, vector(packetBytes)"
vector 303 mobilityDrones.quads[2].app[0] packetReceived:vector(packetBytes) ETV
attr interpolationmode none
attr source packetReceived
attr title "packets received, vector(packetBytes)"
vector 304 mobilityDrones.quads[2].app[0] throughput:vector ETV
attr source throughput(packetReceived)
attr title "throughput, vector"
attr unit bps
vector 305 mobilityDrones.quads[2].app[0] rcvdPkLifetime:vector ETV
attr interpolationmode none
attr source dataAge(packetReceived)
attr title "received packet lifetime, vector"
attr unit s
vector 306 mobilityDrones.quads[3].app[0] packetReceived:vector(packetBytes) ETV
attr interpolationmode none
attr source packetReceived
attr title "packets received, vector(packetBytes)"
vector 307 mobilityDrones.quads[3].app[0] throughput:vector ETV
attr source throughput(packetReceived)
attr title "throughput, vector"
attr unit bps
vector 308 mobilityDrones.quads[3].app[0] rcvdPkLifetime:vector ETV
attr interpolationmode none
attr source dataAge(packetReceived)
attr title "received packet lifetime, vector"
attr unit s
vector 309 mobilityDrones.quads[3].ipv4.arp arpRequestSent:vector(packetBytes) ETV
attr source arpRequestSent
attr title "ARP request sent, vector(packetBytes)"
vector 310 mobilityDrones.quads[3].wlan[0].mac.dcf packetSentToPeerBroadcast:vector(packetBytes) ETV
attr interpolationmode none
attr source ieee80211Broadcast(packetSentToPeer)
attr title "packets sent: broadcast , vector(packetBytes)"
vector 311 mobilityDrones.groundStation.wlan[0].mac.dcf packetReceivedFromPeerBroadcast:vector(packetBytes) ETV
attr interpolationmode none
attr source ieee80211Broadcast(packetReceivedFromPeer)
attr title "packets received: broadcast, vector(packetBytes)"
vector 312 mobilityDrones.quads[2].wlan[0].mac.dcf packetReceivedFromPeerBroadcast:vector(packetBytes) ETV
attr interpolationmode none
attr source ieee80211Broadcast(packetReceivedFromPeer)
attr title "packets received: broadcast, vector(packetBytes)"
vector 313 mobilityDrones.quads[2].ipv4.arp arpReplySent:vector(packetBytes) ETV
attr source arpReplySent
attr title "ARP replies sent, vector(packetBytes)"
vector 314 mobilityDrones.quads[2].wlan[0].mac.dcf packetSentToPeerUnicast:vector(packetBytes) ETV
attr interpolationmode none
attr source ieee80211Unicast(packetSentToPeer)
attr title "packets sent: unicast, vector(packetBytes)"
vector 315 mobilityDrones.quads[2].wlan[0].mac.rx nav:vector ETV
attr interpolationmode linear
attr source navChanged
attr title "network allocation vector, vector"
vector 316 mobilityDrones.quads[3].wlan[0].mac.dcf packetReceivedFromPeerUnicast:vector(packetBytes) ETV
attr interpolationmode none
attr source ieee80211Unicast(packetReceivedFromPeer)
attr title "packets received: unicast, vector(packetBytes)"
vector 317 mobilityDrones.quads[3].wlan[0].mac.dcf packetSentToPeerUnicast:vector(packetBytes) ETV
attr interpolationmode none
attr source ieee80211Unicast(packetSentToPeer)
attr title "packets sent: unicast, vector(packetBytes)"
vector 318 mobilityDrones.groundStation.wlan[0].mac.dcf packetDrop:vector(packetBytes) ETV
attr interpolationmode none
attr source packetDropped
attr title "packet drops, vector(packetBytes)"
vector 319 mobilityDrones.groundStation.wlan[0].mac.dcf packetDropNotAddressedToUs:vector(packetBytes) ETV
attr interpolationmode none
attr source packetDropReasonIsNotAddressedToUs(packetDropped)
attr title "packet drops: not addressed to us, vector(packetBytes)"
vector 320 mobilityDrones.groundStation.wlan[0].mac packetDropNotAddressedToUs:vector(packetBytes) ETV
attr interpolationmode none
attr source packetDropReasonIsNotAddressedToUs(packetDropped)
attr title "packet drops: not addressed to us, vector(packetBytes)"
vector 321 mobilityDrones.quads[2].wlan[0].mac.dcf packetReceivedFromPeerUnicast:vector(packetBytes) ETV
attr interpolationmode none
attr source ieee80211Unicast(packetReceivedFromPeer)
attr title "packets received: unicast, vector(packetBytes)"
vector 322 mobilityDrones.quads[3].wlan[0].mac.rx nav:vector ETV
attr interpolationmode linear
attr source navChanged
attr title "network allocation vector, vector"
vector 323 mobilityDrones.groundStation.wlan[0].mac.rx nav:vector ETV
attr interpolationmode linear
attr source navChanged
attr title "network allocation vector, vector"
vector 324 mobilityDrones.quads[3].wlan[0].mac.dcf packetSentToPeerWithRetry:vector(packetBytes) ETV
attr interpolationmode none
attr source ieee80211Retry(packetSentToPeer)
attr title "packets sent: with retry, vector(packetBytes)"
vector 325 mobilityDrones.quads[2].wlan[0].mac.dcf packetReceivedFromPeerWithRetry:vector(packetBytes) ETV
attr interpolationmode none
attr source ieee80211Retry(packetReceivedFromPeer)
attr title "packets received: with retry, vector(packetBytes)"
vector 326 mobilityDrones.quads[2].wlan[0].mac.dcf packetSentToPeerWithRetry:vector(packetBytes) ETV
attr interpolationmode none
attr source ieee80211Retry(packetSentToPeer)
attr title "packets sent: with retry, vector(packetBytes)"
vector 327 mobilityDrones.quads[3].wlan[0].mac.dcf packetReceivedFromPeerWithRetry:vector(packetBytes) ETV
attr interpolationmode none
attr source ieee80211Retry(packetReceivedFromPeer)
attr title "packets received: with retry, vector(packetBytes)"
vector 328 mobilityDrones.quads[2].wlan[0].mac.dcf packetDrop:vector(packetBytes) ETV
attr interpolationmode none
attr source packetDropped
attr title "packet drops, vector(packetBytes)"
vector 329 mobilityDrones.quads[2].wlan[0].mac.dcf packetDropRetryLimitReached:vector(packetBytes) ETV
attr interpolationmode none
attr source packetDropReasonIsRetryLimitReached(packetDropped)
attr title "packet drops: retry limit reached, vector(packetBytes)"
vector 330 mobilityDrones.quads[2].wlan[0].mac packetDropRetryLimitReached:vector(packetBytes) ETV
attr interpolationmode none
attr source packetDropReasonIsRetryLimitReached(packetDropped)
attr title "packet drops: retry limit reached, vector(packetBytes)"
vector 331 mobilityDrones.quads[3].wlan[0].mac.dcf packetDrop:vector(packetBytes) ETV
attr interpolationmode none
attr source packetDropped
attr title "packet drops, vector(packetBytes)"
vector 332 mobilityDrones.quads[3].wlan[0].mac.dcf packetDropRetryLimitReached:vector(packetBytes) ETV
attr interpolationmode none
attr source packetDropReasonIsRetryLimitReached(packetDropped)
attr title "packet drops: retry limit reached, vector(packetBytes)"
vector 333 mobilityDrones.quads[3].wlan[0].mac packetDropRetryLimitReached:vector(packetBytes) ETV
attr interpolationmode none
attr source packetDropReasonIsRetryLimitReached(packetDropped)
attr title "packet drops: retry limit reached, vector(packetBytes)"
vector 334 mobilityDrones.quads[1].wlan[0].mac.dcf packetReceivedFromPeerBroadcast:vector(packetBytes) ETV
attr interpolationmode none
attr source ieee80211Broadcast(packetReceivedFromPeer)
attr title "packets received: broadcast, vector(packetBytes)"
vector 335 mobilityDrones.quads[1].ipv4.arp arpReplySent:vector(packetBytes) ETV
attr source arpReplySent
attr title "ARP replies sent, vector(packetBytes)"
vector 336 mobilityDrones.quads[1].wlan[0].mac.dcf packetSentToPeerUnicast:vector(packetBytes) ETV
attr interpolationmode none
attr source ieee80211Unicast(packetSentToPeer)
attr title "packets sent: unicast, vector(packetBytes)"
vector 337 mobilityDrones.quads[1].wlan[0].mac.rx nav:vector ETV
attr interpolationmode linear
attr source navChanged
attr title "network allocation vector, vector"
vector 338 mobilityDrones.quads[1].wlan[0].mac.dcf packetReceivedFromPeerUnicast:vector(packetBytes) ETV
attr interpolationmode none
attr source ieee80211Unicast(packetReceivedFromPeer)
attr title "packets received: unicast, vector(packetBytes)"
vector 339 mobilityDrones.quads[1].app[0] packetReceived:vector(packetBytes) ETV
attr interpolationmode none
attr source packetReceived
attr title "packets received, vector(packetBytes)"
vector 340 mobilityDrones.quads[1].app[0] throughput:vector ETV
attr source throughput(packetReceived)
attr title "throughput, vector"
attr unit bps
vector 341 mobilityDrones.quads[1].app[0] rcvdPkLifetime:vector ETV
attr interpolationmode none
attr source dataAge(packetReceived)
attr title "received packet lifetime, vector"
attr unit s
vector 342 mobilityDrones.groundStation.app[0] packetSent:vector(packetBytes) ETV
attr interpolationmode none
attr source packetSent
attr title "packets sent, vector(packetBytes)"
vector 343 mobilityDrones.groundStation.udp packetSent:vector(packetBytes) ETV
attr interpolationmode none
attr source packetSent
attr title "packets sent, vector(packetBytes)"
vector 344 mobilityDrones.groundStation.lo[0].lo rcvdPkFromHl:vector(packetBytes) ETV
attr interpolationmode none
attr source packetReceivedFromUpper
attr title "packets received from higher layer, vector(packetBytes)"
vector 345 mobilityDrones.groundStation.lo[0].lo passedUpPk:vector(packetBytes) ETV
attr interpolationmode none
attr source packetSentToUpper
attr title "packets passed to higher layer, vector(packetBytes)"
vector 346 mobilityDrones.groundStation.wlan[0].mac packetReceivedFromUpper:vector(packetBytes) ETV
attr interpolationmode none
attr title "packets received from upper layer, vector(packetBytes)"
vector 347 mobilityDrones.groundStation.wlan[0].mac.dcf.channelAccess.pendingQueue packetPushed:vector(packetBytes) ETV
attr interpolationmode none
attr title "packet pushed, vector(packetBytes)"
vector 348 mobilityDrones.groundStation.wlan[0].mac.dcf.channelAccess.pendingQueue queueLength:vector ETV
attr interpolationmode sample-hold
attr source "count(packetPushed) - count(packetPopped) - count(packetRemoved) - count(packetDropped)"
attr title "queue length, vector"
vector 349 mobilityDrones.groundStation.wlan[0].mac.dcf.channelAccess.contention backoffPeriodGenerated:vector ETV
attr interpolationmode none
attr title "backoff periods, vector"
vector 350 mobilityDrones.groundStation.wlan[0].mac.dcf.channelAccess.contention backoffActive:vector ETV
attr interpolationmode sample-hold
attr source count(backoffStarted)-count(backoffStopped)
attr title "backoff active, vector"
vector 351 mobilityDrones.groundStation.udp packetReceived:vector(packetBytes) ETV
attr interpolationmode none
attr source packetReceived
attr title "packets received, vector(packetBytes)"
vector 352 mobilityDrones.groundStation.udp passedUpPk:vector(count) ETV
attr interpolationmode none
attr source packetSentToUpper
attr title "packets passed up, vector(count)"
vector 353 mobilityDrones.groundStation.wlan[0].mac.dcf.channelAccess.pendingQueue packetPopped:vector(packetBytes) ETV
attr interpolationmode none
attr title "packet popped, vector(packetBytes)"
vector 354 mobilityDrones.groundStation.wlan[0].mac.dcf.channelAccess.pendingQueue queueingTime:vector ETV
attr interpolationmode none
attr source queueingTime(packetPopped)
attr title "queueing times, vector"
attr unit s
vector 355 mobilityDrones.groundStation.wlan[0].mac.dcf.channelAccess.inProgressFrames queueLength:vector ETV
attr interpolationmode sample-hold
attr source "count(packetEnqueued) - count(packetDequeued)"
attr title "queue length, vector"
vector 356 mobilityDrones.groundStation.wlan[0].mac.dcf datarateSelected:vector ETV
attr interpolationmode none
attr title "datarates selected, vector"
vector 357 mobilityDrones.groundStation.wlan[0].mac packetSentToLower:vector(packetBytes) ETV
attr interpolationmode none
attr title "packets sent to lower layer, vector(packetBytes)"
vector 358 mobilityDrones.groundStation.wlan[0].mac.dcf frameSequenceActive:vector ETV
attr interpolationmode sample-hold
attr source count(frameSequenceStarted)-count(frameSequenceFinished)
attr title "frame sequence active, vector"
vector 359 mobilityDrones.groundStation.wlan[0].radio transmissionState:vector ETV
attr interpolationmode sample-hold
attr source transmissionStateChanged
attr title "Radio transmission state, vector"
vector 360 mobilityDrones.groundStation.wlan[0].mac.dcf packetSentToPeer:vector(packetBytes) ETV
attr interpolationmode none
attr title "packets sent, vector(packetBytes)"
vector 361 mobilityDrones.groundStation.wlan[0].mac.dcf packetSentToPeerMulticast:vector(packetBytes) ETV
attr interpolationmode none
attr source ieee80211Multicast(packetSentToPeer)
attr title "packets sent: multicast, vector(packetBytes)"
vector 362 mobilityDrones.groundStation.wlan[0].mac.dcf packetSentToPeerWithoutRetry:vector(packetBytes) ETV
[...]
239	1699055 990 10118 76051 110.000554391186 334.000298112561 32 14 78 2262 171060
240	1700045 93 10118 55914 110.000554391186 278.000534320283 3 64 64 192 12288
241	1700138 93 10118 55914 110.000554391186 278.000534320283 3 64 64 192 12288
242	1700231 990 10118 76051 110.000554391186 334.000298112561 32 14 78 2262 171060
243	1701221 1216 10118 76090 110.000554391186 334.000342337699 29 5e-005 9.8782274e-005 0.002708859249 2.5933814986095e-007
244	1702437 3181 10127 76060 110.000554804026 334.000298525401 103 14 78 6236 457736
245	1705618 2718 10127 76060 110.000554804026 334.000298525401 88 14 78 5492 407768
246	1708336 1235 10127 74852 110.000554804026 328.00005439027 40 14 78 2964 227608
247	1709571 895 10157 76090 110.001235173504 334.000342337699 29 14 64 556 17384
248	1710466 897 10189 76051 110.001279173504 334.000298112561 29 14 78 2070 158772
249	1711363 1483 10194 76060 110.001279586344 334.000298525401 48 14 78 2528 180160
250	1712846 1483 10194 76060 110.001279586344 334.000298525401 48 14 78 2528 180160
251	1714329 1483 10194 76060 110.001279586344 334.000298525401 48 14 78 2528 180160
252	1715812 10716 10221 76086 110.001523173504 334.000342112561 333 0 4.4e-005 0.004884 2.14896e-007
253	1726528 463 11129 55923 116.000054384804 278.000534733123 15 14 78 744 49968
254	1726991 216 11129 55923 116.000054384804 278.000534733123 7 64 78 532 40600
255	1727207 463 11129 55923 116.000054384804 278.000534733123 15 14 78 744 49968
256	1727670 278 11129 55923 116.000054384804 278.000534733123 9 36 50 408 18888
257	1727948 185 11132 49712 116.000054384804 254.251059133456 6 22 22 132 2904
258	1728133 179 11132 49712 116.000054384804 254.251059133456 6 1 6 21 91
259	1728312 185 11133 49713 116.000054384804 254.251059133456 6 14 14 84 1176
260	1728497 46707 11133 49713 0.1 254.2 2542 0 1120 5600 6272000
261	1775204 257 11133 49713 116.000054384804 254.251059133456 6 5.4384268e-005 5.4400319e-005 0.000326331267 1.7748682835172e-008
262	1775461 185 11133 49713 116.000054384804 254.251059133456 6 14 14 84 1176
263	1775646 185 11134 49714 116.000054384804 254.251059133456 6 22 22 132 2904
264	1775831 61 11135 24638 116.000054384804 165.25105913142 2 28 28 56 1568
265	1775892 247 11137 49717 116.000054384804 254.251059133456 8 36 50 372 17592
266	1776139 247 11137 49717 116.000054384804 254.251059133456 8 64 78 596 44696
267	1776386 474 11137 49797 116.000054384804 254.251871501981 16 0 1 8 8
268	1776860 245 11137 49717 116.000054384804 254.251059133456 8 8 21 111 1661
269	1777105 1478 11137 49796 116.000054384804 254.251871501981 50 0 1 25 25
270	1778583 243 11217 49797 116.00072677872 254.251871501981 8 64 78 596 44696
271	1778826 319 11217 49797 116.00072677872 254.251871501981 8 0.00031 0.000852170729 0.005020357891 3.4785563172448e-006
272	1779145 472 11217 49855 116.00072677872 254.251970274589 16 0 1 8 8
273	1779617 365 11217 49797 116.00072677872 254.251871501981 10 24000000 24000000 240000000 5.76e+015
274	1779982 305 11217 49797 116.00072677872 254.251871501981 10 14 78 624 45088
275	1780287 472 11217 49855 116.00072677872 254.251970274589 16 0 1 8 8
276	1780759 1180 11218 49813 116.00072677872 254.251925501981 40 0 2 40 60
277	1781939 305 11232 49812 116.00077677872 254.251925501981 10 14 78 624 45088
278	1782244 60 11232 24667 116.00077677872 165.25141913142 2 64 64 128 8192
279	1782304 60 11232 24667 116.00077677872 165.25141913142 2 64 64 128 8192
280	1782364 305 11232 49812 116.00077677872 254.251925501981 10 14 78 624 45088
281	1782669 325 11232 49855 116.00077677872 254.251970274589 8 5e-005 9.8800622e-005 0.000692662502 6.3541474338243e-008
282	1782994 310 11241 49821 116.000777176748 254.251925900009 10 14 78 624 45088
283	1783304 62 11241 24676 116.000777176748 165.251419529448 2 64 64 128 8192
284	1783366 62 11241 24676 116.000777176748 165.251419529448 2 64 64 128 8192
285	1783428 62 11241 24676 116.000777176748 165.251419529448 2 64 64 128 8192
286	1783490 62 11241 24676 116.000777176748 165.251419529448 2 64 64 128 8192
287	1783552 62 11241 24676 116.000777176748 165.251419529448 2 36 36 72 2592
288	1783614 4537 11245 71590 116.00077719156 321.000054347137 147 14 78 9540 713656
289	1788151 1020 11245 71590 116.00077719156 321.000054347137 33 64 78 2546 196796
290	1789171 3517 11274 49853 116.00109736045 254.251970072571 114 14 78 6994 516860
291	1792688 3517 11274 49853 116.00109736045 254.251970072571 114 14 78 6994 516860
292	1796205 3517 11274 49853 116.00109736045 254.251970072571 114 14 78 6994 516860
293	1799722 247 11276 49855 116.001097548325 254.251970274589 8 14 64 212 9368
294	1799969 245 11308 49812 116.001141548325 254.251925501981 8 14 78 496 36896
295	1800214 217 11313 49821 116.001141946353 254.251925900009 7 14 78 418 30812
296	1800431 217 11313 49821 116.001141946353 254.251925900009 7 14 78 418 30812
297	1800648 248 11313 49821 116.001141946353 254.251925900009 8 14 78 496 36896
298	1800896 217 11313 49821 116.001141946353 254.251925900009 7 14 78 418 30812
299	1801113 3383 11341 76091 116.001665548325 334.000342525401 105 0 4.4e-005 0.00154 6.776e-008
300	1804496 485 11350 49851 116.001665946353 254.251969900009 15 0 4.4e-005 0.00022 9.68e-009
301	1804981 1639 11654 80228 117.653542430774 338.095819745104 53 14 78 4070 316564
302	1806620 771 11654 77597 117.653542430774 335.119003307106 25 14 78 1886 146212
303	1807391 1237 11708 77714 118.026257158454 335.251059119836 40 14 14 560 7840
304	1808628 62025 11708 77714 0.1 335.2 3352 0 3360 43680 61465600
305	1870653 1714 11708 77714 118.026257158454 335.251059119836 40 5.4111887e-005 0.031289175924 0.072563731788 0.0013236310095017
306	1872367 1175 11798 77634 118.653542419221 335.120591307071 38 14 14 532 7448
307	1873542 61988 11798 77634 0.1 335.1 3351 0 3360 41440 68992000
308	1935530 1627 11798 77634 118.653542419221 335.120591307071 38 5.4066885e-005 0.093247668836 0.213920929694 0.012028078702045
309	1937157 93 11800 56943 118.653542419221 283.653542405264 3 28 28 84 2352
310	1937250 93 11830 56974 118.653702419221 283.666482405264 3 64 64 192 12288
311	1937343 62 11833 15879 118.653702649369 130.014934136683 2 64 64 128 8192
312	1937405 93 11837 56977 118.653702825987 283.666482797511 3 64 64 192 12288
313	1937498 93 11839 56979 118.653702825987 283.666482797511 3 28 28 84 2352
314	1937591 8025 11868 80692 118.654402825987 338.698270012454 259 14 78 17792 1351936
315	1945616 21501 11868 80692 118.654402825987 338.698270012454 665 0 4.4e-005 0.009768 4.29792e-007
316	1967117 2197 11871 77630 118.654403232747 335.120591307071 71 14 78 3320 225808
317	1969314 8119 11903 80213 118.654447232747 338.095764745104 262 14 78 18040 1372176
318	1977433 1331 11906 80159 118.65444746292 338.060537 45 14 78 3382 262004
319	1978764 1019 11906 14510 118.65444746292 123.111824862613 33 14 78 2446 188996
320	1979783 1019 11906 14510 118.65444746292 123.111824862613 33 14 78 2446 188996
321	1980802 1947 11908 77822 118.654447639506 335.653586811222 63 14 78 3222 226228
322	1982749 21822 11935 80227 118.654891232747 338.095808745104 675 0 4.4e-005 0.0099 4.356e-007
323	2004571 12343 11938 80158 118.654891462933 338.060526 435 0 4.4e-005 0.00638 2.8072e-007
324	2016914 5115 11970 80213 118.655379232747 338.095764745104 165 64 78 12856 1001872
325	2022029 154 11975 35308 118.655379639498 202.027645145879 5 78 78 390 30420
326	2022183 5239 12075 80692 118.656175639498 338.698270012454 169 78 78 13182 1028196
327	2027422 217 12111 77630 118.656564046239 335.120591307071 7 78 78 546 42588
328	2027639 837 12532 79748 119.684525012454 337.678485012454 27 14 78 2042 158380
329	2028476 806 12532 79748 119.684525012454 337.678485012454 26 78 78 2028 158184
330	2029282 806 12532 79748 119.684525012454 337.678485012454 26 78 78 2028 158184
331	2030088 868 12786 80228 120.040719745104 338.095819745104 28 78 78 2184 170352
332	2030956 806 12786 80228 120.040719745104 338.095819745104 26 78 78 2028 158184
333	2031762 806 12786 80228 120.040719745104 338.095819745104 26 78 78 2028 158184
334	2032568 216 15195 76218 126.25141954339 334.270079427521 7 64 64 448 28672
335	2032784 216 15197 76220 126.25141954339 334.270079427521 7 28 28 196 5488
336	2033000 7838 15227 80452 126.25151954339 338.337306747152 253 14 78 15654 1158292
337	2040838 18521 15227 80466 126.25151954339 338.337350747152 573 0 4.4e-005 0.008404 3.69776e-007
338	2059359 2966 15265 77787 126.251564339608 335.653542411836 96 14 78 5298 381884
339	2062325 1825 15300 77791 126.251968339595 335.653542411836 59 14 14 826 11564
340	2064150 62146 15300 77791 0.1 335.6 3356 0 3360 64960 95334400
341	2126296 2529 15300 77791 126.251968339595 335.653542411836 59 5.4115196e-005 1.047288948795 1.866296604329 1.5174878096305
342	2128825 4010 15807 79755 130 338 217 14 14 3038 42532
343	2132835 4010 15812 79758 130 338 217 22 22 4774 105028
344	2136845 3258 15814 76816 130 335 181 42 42 7602 319284
345	2140103 3258 15814 76816 130 335 181 42 42 7602 319284
346	2143361 4070 15817 79761 130 338 219 36 50 10922 545092
347	2147431 4070 15817 79761 130 338 219 64 78 17054 1328420
348	2151501 7702 15817 79763 130 338 438 0 2 223 227
349	2159203 6273 15817 80029 130 338.044409 296 0 1022 121505 78689153
350	2165476 12419 15817 80128 130 338.060428 622 0 1 311 311
351	2177895 4123 15818 77026 130 335.027343638235 209 22 22 4598 101156
352	2182018 4224 15818 77026 130 335.027343638235 209 1 209 21945 3064985
353	2186242 4070 15821 79763 130 338 219 64 78 17054 1328420
354	2190312 3935 15821 79763 130 338 219 0 0.015959637259 0.065486592199 0.00086201641084186
355	2194247 9269 15821 80159 130 338.060537 438 0 2 223 227
356	2203516 8824 15821 80129 130 338.060428 323 24000000 24000000 7752000000 1.86048e+017
357	2212340 6886 15821 80129 130 338.060428 323 14 78 23438 1802180
358	2219226 13090 15821 80159 130 338.060537 592 0 1 296 296
359	2232316 29182 15822 80145 130 338.060482 1292 0 2 1292 1938
360	2261498 8351 15836 80144 130.000054 338.060482 323 14 78 23438 1802180
361	2269849 4556 15836 76838 130.000054 335.000054 182 64 78 14182 1105300
362	2274405 6365 15836 79778 130.000054 338.000054 246 14 78 17432 1333712
363	2280770 7103 15836 80159 130.000054 338.060537 219 5e-005 0.07798925678 0.614519882885 0.033643268634878
364	2287873 31 15881 15881 130.014934136683 130.014934136683 1 28 28 28 784
365	2287904 3795 15911 80144 130.015214136683 338.060482 141 14 78 9256 696880
366	2291699 1632 15949 77665 130.015258273254 335.120635713607 53 14 78 2456 167376
367	2293331 865 15992 77027 130.031082273144 335.027343638235 28 14 14 392 5488
368	2294196 61945 15992 76924 0.1 335 3350 0 2240 29120 45158400
369	2356141 1198 15992 77027 130.031082273144 335.027343638235 28 5.4066867e-005 0.031028204749 0.072879573516 0.0017296227516128
370	2357339 1946 18497 53517 139.000054412717 266.020107404157 63 14 78 3798 279220
371	2359285 836 18497 48271 139.000054412717 247.085962348265 27 78 78 2106 164268
372	2360121 465 18497 47464 139.000054412717 246.001222383841 15 78 78 1170 91260
373	2360586 1110 18982 53517 141.000054347049 266.020107404157 36 14 78 1692 114952
374	2361696 523 18982 53321 141.000054347049 266.000054280444 17 78 78 1326 103428
375	2362219 1110 18982 53517 141.000054347049 266.020107404157 36 14 78 1692 114952
376	2363329 585 18982 53413 141.000054347049 266.019414841971 19 36 50 922 45092
377	2363914 523 18985 53324 141.000054347049 266.000054280444 17 22 22 374 8228
378	2364437 514 18985 53324 141.000054347049 266.000054280444 17 1 17 153 1785
379	2364951 523 18986 53325 141.000054347049 266.000054280444 17 14 14 238 3332
380	2365474 48958 18986 53325 0.1 266 2660 0 1120 17920 20070400
381	2414432 723 18986 53325 141.000054347049 266.000054280444 17 5.4086278e-005 5.435027e-005 0.000921736457 4.9976527294332e-008
382	2415155 523 18986 53325 141.000054347049 266.000054280444 17 14 14 238 3332
383	2415678 523 18987 53326 141.000054347049 266.000054280444 17 22 22 374 8228
384	2416201 93 18988 53327 141.000054347049 266.000054280444 3 28 28 84 2352
385	2416294 617 18990 53417 141.000054347049 266.019414841971 20 36 50 958 46388
386	2416911 617 18990 53417 141.000054347049 266.019414841971 20 64 78 1518 115716
387	2417528 1193 18990 53462 141.000054347049 266.020008841971 40 0 2 22 24
388	2418721 609 18990 53417 141.000054347049 266.019414841971 20 0 29 294 6026
389	2419330 1311 18990 53461 141.000054347049 266.020008841971 44 0 1 22 22
390	2420641 616 19084 53462 141.000584347049 266.020008841971 20 64 78 1518 115716
391	2421257 725 19084 53462 141.000584347049 266.020008841971 20 6.9967331e-005 0.00063 0.007451967331 3.4264434274073e-006
392	2421982 1193 19084 53517 141.000584347049 266.020107404157 40 0 2 22 24
393	2423175 809 19084 53462 141.000584347049 266.020008841971 22 24000000 24000000 528000000 1.2672e+016
394	2423984 677 19084 53462 141.000584347049 266.020008841971 22 14 78 1546 116108
395	2424661 1192 19084 53517 141.000584347049 266.020107404157 40 0 1 20 20
396	2425853 2620 19085 53478 141.000584347049 266.020062841971 88 0 2 88 132
397	2428473 677 19115 53477 141.000634347049 266.020062841971 22 14 78 1546 116108
398	2429150 92 19115 53369 141.000634347049 266.000434280444 3 64 64 192 12288
399	2429242 92 19115 53369 141.000634347049 266.000434280444 3 64 64 192 12288
400	2429334 677 19115 53477 141.000634347049 266.020062841971 22 14 78 1546 116108
401	2430011 833 19115 53517 141.000634347049 266.020107404157 20 5e-005 0.000247257342 0.001972037345 2.2363255303398e-007
402	2430844 1051 19120 53486 141.000634706168 266.02006320109 34 14 78 2098 153788
403	2431895 989 19120 53486 141.000634706168 266.02006320109 32 14 78 1970 145596
404	2432884 247 19120 50616 141.000634706168 260.000054386029 8 14 78 546 40796
405	2433131 62 19457 53378 142.000174673499 266.000434639563 2 64 64 128 8192
406	2433193 62 19457 53378 142.000174673499 266.000434639563 2 64 64 128 8192
407	2433255 62 19457 53378 142.000174673499 266.000434639563 2 64 64 128 8192
408	2433317 62 19457 53378 142.000174673499 266.000434639563 2 64 64 128 8192
409	2433379 62 19457 53378 142.000174673499 266.000434639563 2 36 36 72 2592
410	2433441 587 19489 53517 142.000734943114 266.020107404157 19 14 64 366 11524
411	2434028 585 19523 53477 142.000778943114 266.020062841971 19 14 78 1354 103820
412	2434613 742 19528 53486 142.000779302233 266.02006320109 24 14 78 1424 104800
413	2435355 742 19528 53486 142.000779302233 266.02006320109 24 14 78 1424 104800
414	2436097 742 19528 53486 142.000779302233 266.02006320109 24 14 78 1424 104800
415	2436839 2798 19555 53512 142.001322943114 266.020106841971 87 0 4.4e-005 0.001276 5.6144e-008
416	2439637 1646 19564 53515 142.001323302233 266.02010720109 51 0 4.4e-005 0.000748 3.2912e-008
417	2441283 1986 20377 80144 145.000822 338.060482 77 78 78 6006 468468
418	2443269 281 20691 80159 145.032217 338.060537 11 78 78 858 66924
419	2443550 281 20691 80159 145.032217 338.060537 11 78 78 858 66924
420	2443831 3738 21809 70324 150.251059159436 314.290527038165 121 14 78 8642 661532
421	2447569 341 21809 67551 150.251059159436 311.000054399175 11 64 78 844 64936
422	2447910 217 25976 60750 170.666939219631 293.265731160322 7 78 78 546 42588
423	2448127 31 26096 26096 171.000054299734 171.000054299734 1 28 28 28 784
424	2448158 31 26139 26139 171.000594299734 171.000594299734 1 64 64 64 4096
425	2448189 30 26142 26142 171.00059437347 171.00059437347 1 64 64 64 4096
426	2448219 2135 26608 70071 172.000222 314.086182 86 78 78 6708 523224
427	2450354 279 26611 67746 172.000222341534 311.016534419964 9 78 78 702 54756
428	2450633 4185 27116 80452 173.251386747152 338.337306747152 135 64 78 10516 819352
429	2454818 713 27313 80467 173.264981747152 338.337361747152 23 78 78 1794 139932
430	2455531 682 27313 80467 173.264981747152 338.337361747152 22 78 78 1716 133848
431	2456213 682 27313 80467 173.264981747152 338.337361747152 22 78 78 1716 133848
432	2456895 393 27648 70086 174.030017 314.086237 15 14 78 1042 79484
433	2457288 300 27648 70086 174.030017 314.086237 12 78 78 936 73008
434	2457588 300 27648 70086 174.030017 314.086237 12 78 78 936 73008
435	2457888 93 30945 76184 188.251059086979 334.251059154682 3 28 28 84 2352
436	2457981 93 30975 76215 188.251679086979 334.270079087971 3 64 64 192 12288
437	2458074 62 30978 66325 188.251679284804 309.251419469335 2 64 64 128 8192
438	2458136 3397 31051 70324 188.255423964245 314.290527038165 110 14 78 7798 596596
439	2461533 3397 31051 70324 188.255423964245 314.290527038165 110 14 78 7798 596596
440	2464930 3397 31051 70324 188.255423964245 314.290527038165 110 14 78 7798 596596
441	2468327 31 41784 41784 220.251227680132 220.251227680132 1 14 14 14 196
442	2468358 31 41784 41784 220.251227680132 220.251227680132 1 14 14 14 196
443	2468389 31 44098 44098 230.251905990048 230.251905990048 1 78 78 78 6084
444	2468420 93 45982 66402 242.251387436256 309.251788025276 3 14 78 106 6476
445	2468513 93 45982 66402 242.251387436256 309.251788025276 3 14 78 106 6476
446	2468606 371 47497 48271 246.001610383828 247.085962348265 12 78 78 936 73008
447	2468977 371 47497 48271 246.001610383828 247.085962348265 12 78 78 936 73008
448	2469348 371 47497 48271 246.001610383828 247.085962348265 12 78 78 936 73008
449	2469719 31 50747 50747 260.026257133068 260.026257133068 1 28 28 28 784
450	2469750 31 50778 50778 260.039057133068 260.039057133068 1 64 64 64 4096
451	2469781 31 50781 50781 260.039057520611 260.039057520611 1 64 64 64 4096
452	2469812 31 50783 50783 260.039057520611 260.039057520611 1 28 28 28 784
453	2469843 153 50850 77094 260.0529019077 335.028992456827 5 64 78 376 28432
454	2469996 31 54226 54226 269.259923950287 269.259923950287 1 64 64 64 4096
455	2470027 31 55923 55923 278.000534733123 278.000534733123 1 64 64 64 4096
456	2470058 31 61911 61911 298.654231221955 298.654231221955 1 78 78 78 6084
457	2470089 31 61911 61911 298.654231221955 298.654231221955 1 78 78 78 6084
458	2470120 31 66293 66293 309.251059121232 309.251059121232 1 28 28 28 784
459	2470151 31 66322 66322 309.251419121232 309.251419121232 1 64 64 64 4096
460	2470182 31 67405 67405 310.252227133309 310.252227133309 1 78 78 78 6084
461	2470213 31 77094 77094 335.028992456827 335.028992456827 1 78 78 78 6084
462	2470244 31 77094 77094 335.028992456827 335.028992456827 1 78 78 78 6084
463	2470275 62 77370 77436 335.102241680194 335.114250493851 2 78 78 156 12168
464	2470337 62 77370 77436 335.102241680194 335.114250493851 2 78 78 156 12168
vector 465 mobilityDrones.sensors[4].app[0] throughput:vector ETV
attr source throughput(packetReceived)
attr title "throughput, vector"
attr unit bps
vector 466 mobilityDrones.sensors[5].app[0] throughput:vector ETV
attr source throughput(packetReceived)
attr title "throughput, vector"
attr unit bps
vector 467 mobilityDrones.sensors[6].app[0] throughput:vector ETV
attr source throughput(packetReceived)
attr title "throughput, vector"
attr unit bps
vector 468 mobilityDrones.sensors[7].app[0] throughput:vector ETV
attr source throughput(packetReceived)
attr title "throughput, vector"
attr unit bps
130	2471019 4433 80697 80697 315.3 338.698271445552 235 0 1120 1120 1254400
168	2475452 899 80697 80697 334.1 338.698271445552 47 0 1120 1120 1254400
222	2476351 899 80697 80697 334.1 338.698271445552 47 0 1120 1120 1254400
260	2477250 15901 80697 80697 254.3 338.698271445552 845 0 1120 1120 1254400
304	2493151 673 80697 80697 335.3 338.698271445552 35 0 1120 1120 1254400
307	2493824 692 80697 80697 335.2 338.698271445552 36 0 1120 1120 1254400
340	2494516 597 80697 80697 335.7 338.698271445552 31 0 1120 1120 1254400
368	2495113 711 80697 80697 335.1 338.698271445552 37 0 2240 2240 5017600
380	2495824 13683 80697 80697 266.1 338.698271445552 727 0 1120 1120 1254400
465	2509507 62590 80697 80697 0.1 338.698271445552 3387 0 0 0 0
466	2572097 62590 80697 80697 0.1 338.698271445552 3387 0 0 0 0
467	2634687 62590 80697 80697 0.1 338.698271445552 3387 0 0 0 0
468	2697277 62590 80697 80697 0.1 338.698271445552 3387 0 0 0 0

