version 2
run Sim4drone-0-20210719-10:55:02-6284
attr configname Sim4drone
attr datetime 20210719-10:55:02
attr experiment Sim4drone
attr inifile mobilityDrones-omnetpp.ini
attr iterationvars ""
attr iterationvarsf ""
attr measurement ""
attr network mobilityDrones
attr processid 6284
attr repetition 0
attr replication #0
attr resultdir results
attr runnumber 0
attr seedset 0
param *.numUAVs 4
param *.drones[0].app[0].destAddresses "\"drones[1] drones[2] drones[3] sensor1\""
param *.drones[1].app[0].destAddresses "\"drones[0] drones[2] drones[3] sensor1\""
param *.drones[2].app[0].destAddresses "\"drones[0] drones[1] drones[3] sensor1\""
param *.drones[3].app[0].destAddresses "\"drones[0] drones[1] drones[2] sensor1\""
param *.drones[*].mobility.waypointFile "\"paths/mission.txt\""
param *.drones[*].app[*].timeoutDuration 5s
param *.drones[0].mobility.startTime 0s
param *.drones[1].mobility.startTime 40s
param *.drones[2].mobility.startTime 80s
param *.drones[3].mobility.startTime 110s
param *.drones[0].app[*].startTime "normal(1s, 1s)"
param *.drones[1].app[*].startTime "normal(40s, 1s)"
param *.drones[2].app[*].startTime "normal(80s, 1s)"
param *.drones[3].app[*].startTime "normal(110s, 1s)"
param *.sensor.osgModel "\"3d/drone.ive.100.scale.0,0,90.rot\""
param *.sensor.mobility.typename "\"StationaryMobility\""
param *.sensor*.mobility.coordinateSystemModule "\"\""
param *.sensor*.numApps 1
param *.sensor*.app[0].typename "\"UdpSensorCommunicationApp\""
param *.sensor*.app[0].destAddresses "\"drones[0] drones[1] drones[2] drones[3]\""
param *.sensor*.app[0].destPort 1000
param *.sensor*.app[0].sendInterval 3s
param *.sensor*.app[0].startTime exponential(1s)
param *.sensor*.app[0].messageLength 1454Byte
param *.sensor1.mobility.initialX 400m
param *.sensor1.mobility.initialY -200m
param *.sensor1.mobility.initialZ 3m
param *.visualizer.osgVisualizer.typename "\"IntegratedOsgVisualizer\""
param *.visualizer.osgVisualizer.sceneVisualizer.typename "\"SceneOsgEarthVisualizer\""
param *.visualizer.osgVisualizer.sceneVisualizer.mapFile "\"map.earth\""
param *.visualizer.osgVisualizer.sceneVisualizer.sceneImageSize 10000m
param *.visualizer.osgVisualizer.sceneVisualizer.axisLength 500m
param *.visualizer.osgVisualizer.sceneVisualizer.sceneMinX -200m
param *.visualizer.osgVisualizer.sceneVisualizer.sceneMinY -200m
param *.visualizer.osgVisualizer.sceneVisualizer.sceneMinZ 0m
param *.visualizer.osgVisualizer.sceneVisualizer.sceneMaxX 5000m
param *.visualizer.osgVisualizer.sceneVisualizer.sceneMaxY 5000m
param *.visualizer.osgVisualizer.sceneVisualizer.sceneMaxZ 5000m
param *.visualizer.osgVisualizer.networkNodeVisualizer.displayModuleName true
param *.visualizer.*.statisticVisualizer.signalName "\"dataLoad\""
param *.visualizer.*.statisticVisualizer.format "\"(%v/20)\""
param *.visualizer.*.statisticVisualizer.textColor "\"red\""
param *.visualizer.*.statisticVisualizer.font "\"bold\""
param *.visualizer.*.statisticVisualizer.sourceFilter "\"*.drones[*].**\""
param *.visualizer.*.mobilityVisualizer.displayMobility true
param *.visualizer.*.mobilityVisualizer.displayPositions true
param *.visualizer.*.mobilityVisualizer.displayOrientations true
param *.visualizer.*.mobilityVisualizer.displayVelocities true
param *.visualizer.*.mobilityVisualizer.displayMovementTrails true
param *.visualizer.*.mobilityVisualizer.animationSpeed 10
param *.visualizer.mediumVisualizer.displaySignals true
param **.constraintAreaMinX -5000m
param **.constraintAreaMinY -5000m
param **.constraintAreaMinZ -100m
param **.constraintAreaMaxX 5000m
param **.constraintAreaMaxY 5000m
param **.constraintAreaMaxZ 5000m
param *.drones*.wlan[0].radio.displayCommunicationRange true
param *.coordinateSystem.sceneLongitude -47.926634deg
param *.coordinateSystem.sceneLatitude -15.840075deg
param *.coordinateSystem.sceneHeading 90deg
param *.environment.ground.typename "\"FlatGround\""
param *.drones[*].osgModel "\"3d/drone.ive.80.scale.0,0,90.rot\""
param *.drones[*].mobility.coordinateSystemModule "\"coordinateSystem\""
param *.drones[*].mobility.waypointFile "\"paths/gradys-vai-e-volta-descendo-5s-v1.txt\""
param *.drones[*].mobility.waypointProximity 1m
param **.mobility.initFromDisplayString false
param *.drones[*].mobility.speed 10mps
param *.drones[*].numApps 1
param *.drones[*].app[0].typename "\"UdpMobileNodeCommunicationApp\""
param *.drones[*].app[0].localPort 1000
param *.drones[*].app[0].destPort 1000
param *.drones[*].app[0].sendInterval 1s
param *.drones[*].app[0].startTime 1s
param *.drones[*].app[0].stopTime -1s
param *.drones[*].app[0].messageLength 1454Byte
param *.drones[*].app[0].packetName "\"UAV-DEFAULT-PAYLOAD\""
param *.drones[*].mobility.typename "\"DroneMobility\""
param *.sensor.osgModel "\"3d/drone.ive.100.scale.0,0,90.rot\""
param *.sensor.mobility.typename "\"StationaryMobility\""
param *.sensor*.mobility.coordinateSystemModule "\"\""

scalar mobilityDrones.radioMedium.propagation "Arrival computation count" 12592
scalar mobilityDrones.radioMedium "transmission count" 3148
scalar mobilityDrones.radioMedium "signal send count" 12592
scalar mobilityDrones.radioMedium "reception computation count" 12592
scalar mobilityDrones.radioMedium "interference computation count" 40929
scalar mobilityDrones.radioMedium "reception decision computation count" 1086
scalar mobilityDrones.radioMedium "listening decision computation count" 27251
scalar mobilityDrones.radioMedium "reception cache hit" 76.518852795286
attr unit %
scalar mobilityDrones.radioMedium "interference cache hit" 66.666666666667
attr unit %
scalar mobilityDrones.radioMedium "noise cache hit" 0
attr unit %
scalar mobilityDrones.radioMedium "snir cache hit" 50
attr unit %
scalar mobilityDrones.radioMedium "reception decision cache hit" 50
attr unit %
scalar mobilityDrones.radioMedium "reception result cache hit" 0
attr unit %
scalar mobilityDrones.drones[0].lo[0].lo rcvdPkFromHl:count 363
attr interpolationmode none
attr source packetReceivedFromUpper
attr title "packets received from higher layer, count"
scalar mobilityDrones.drones[0].lo[0].lo rcvdPkFromHl:sum(packetBytes) 15246
attr interpolationmode none
attr source packetReceivedFromUpper
attr title "packets received from higher layer, sum(packetBytes)"
scalar mobilityDrones.drones[0].lo[0].lo passedUpPk:count 363
attr interpolationmode none
attr source packetSentToUpper
attr title "packets passed to higher layer, count"
scalar mobilityDrones.drones[0].lo[0].lo passedUpPk:sum(packetBytes) 15246
attr interpolationmode none
attr source packetSentToUpper
attr title "packets passed to higher layer, sum(packetBytes)"
scalar mobilityDrones.drones[0].wlan[0].mac.dcf.channelAccess.pendingQueue packetPopped:count 415
attr interpolationmode none
attr title "packet popped, count"
scalar mobilityDrones.drones[0].wlan[0].mac.dcf.channelAccess.pendingQueue packetPopped:sum(packetBytes) 32314
attr interpolationmode none
attr title "packet popped, sum(packetBytes)"
statistic mobilityDrones.drones[0].wlan[0].mac.dcf.channelAccess.pendingQueue queueingTime:histogram
field count 415
field mean 0.00012831517029398
field stddev 0.0011025700991366
field min 0
field max 0.012374
field sum 0.053250795672
field sqrsum 0.0005101164658481
attr interpolationmode none
attr source queueingTime(packetPopped)
attr title "queueing times, histogram"
attr unit s
bin	-inf	0
bin	0	405
bin	0.00021	2
bin	0.00042	1
bin	0.00063	0
bin	0.00084	0
bin	0.00105	1
bin	0.00126	0
bin	0.00147	0
bin	0.00168	0
bin	0.00189	0
bin	0.0021	0
bin	0.00231	1
bin	0.00252	0
bin	0.00273	0
bin	0.00294	0
bin	0.00315	0
bin	0.00336	0
bin	0.00357	0
bin	0.00378	0
bin	0.00399	1
bin	0.0042	0
bin	0.00441	0
bin	0.00462	0
bin	0.00483	0
bin	0.00504	0
bin	0.00525	0
bin	0.00546	0
bin	0.00567	0
bin	0.00588	0
bin	0.00609	0
bin	0.0063	0
bin	0.00651	0
bin	0.00672	0
bin	0.00693	0
bin	0.00714	0
bin	0.00735	0
bin	0.00756	0
bin	0.00777	0
bin	0.00798	0
bin	0.00819	0
bin	0.0084	0
bin	0.00861	0
bin	0.00882	0
bin	0.00903	0
bin	0.00924	1
bin	0.00945	0
bin	0.00966	0
bin	0.00987	0
bin	0.01008	1
bin	0.01029	0
bin	0.0105	0
bin	0.01071	0
bin	0.01092	0
bin	0.01113	0
bin	0.01134	0
bin	0.01155	0
bin	0.01176	1
bin	0.01197	0
bin	0.01218	1
bin	0.01239	0
scalar mobilityDrones.drones[0].wlan[0].mac.dcf.channelAccess.pendingQueue queueLength:max 1
attr interpolationmode sample-hold
attr source "count(packetPushed) - count(packetPopped) - count(packetRemoved) - count(packetDropped)"
attr title "queue length, max"
scalar mobilityDrones.drones[0].wlan[0].mac.dcf.channelAccess.pendingQueue queueLength:timeavg 0.00013232983564141
attr interpolationmode sample-hold
attr source "count(packetPushed) - count(packetPopped) - count(packetRemoved) - count(packetDropped)"
attr title "queue length, timeavg"
scalar mobilityDrones.drones[0].wlan[0].mac.dcf.channelAccess.pendingQueue packetPushed:count 415
attr interpolationmode none
attr title "packet pushed, count"
scalar mobilityDrones.drones[0].wlan[0].mac.dcf.channelAccess.pendingQueue packetPushed:sum(packetBytes) 32314
attr interpolationmode none
attr title "packet pushed, sum(packetBytes)"
scalar mobilityDrones.drones[0].wlan[0].mac.dcf.channelAccess.pendingQueue packetDropQueueOverflow:count 0
attr interpolationmode none
attr source packetDropReasonIsQueueOverflow(packetDropped)
attr title "packet drops: queue overflow, count"
scalar mobilityDrones.drones[0].wlan[0].mac.dcf.channelAccess.pendingQueue packetDropQueueOverflow:sum(packetBytes) 0
attr interpolationmode none
attr source packetDropReasonIsQueueOverflow(packetDropped)
attr title "packet drops: queue overflow, sum(packetBytes)"
scalar mobilityDrones.drones[0].wlan[0].mac.dcf.channelAccess.pendingQueue packetRemoved:count 0
attr interpolationmode none
attr title "packets removed, count"
scalar mobilityDrones.drones[0].wlan[0].mac.dcf.channelAccess.pendingQueue packetRemoved:sum(packetBytes) 0
attr interpolationmode none
attr title "packets removed, sum(packetBytes)"
statistic mobilityDrones.drones[0].wlan[0].mac.dcf.channelAccess.inProgressFrames queueingTime:histogram
field count 415
field mean 0.0043804582045976
field stddev 0.014858988764789
field min 5.4e-005
field max 0.082817
field sum 1.817890154908
field sqrsum 0.099370064348547
attr interpolationmode none
attr source queueingTime(packetDequeued)
attr title "queueing times, histogram"
bin	-inf	0
bin	0	377
bin	0.01	2
bin	0.02	8
bin	0.03	7
bin	0.04	2
bin	0.05	7
bin	0.06	6
bin	0.07	3
bin	0.08	3
bin	0.09	0
bin	0.1	0
bin	0.11	0
bin	0.12	0
bin	0.13	0
bin	0.14	0
bin	0.15	0
bin	0.16	0
bin	0.17	0
bin	0.18	0
bin	0.19	0
bin	0.2	0
bin	0.21	0
bin	0.22	0
bin	0.23	0
bin	0.24	0
bin	0.25	0
bin	0.26	0
bin	0.27	0
bin	0.28	0
bin	0.29	0
bin	0.3	0
bin	0.31	0
bin	0.32	0
bin	0.33	0
bin	0.34	0
bin	0.35	0
bin	0.36	0
bin	0.37	0
bin	0.38	0
bin	0.39	0
bin	0.4	0
bin	0.41	0
bin	0.42	0
bin	0.43	0
bin	0.44	0
bin	0.45	0
bin	0.46	0
bin	0.47	0
bin	0.48	0
bin	0.49	0
bin	0.5	0
bin	0.51	0
scalar mobilityDrones.drones[0].wlan[0].mac.dcf.channelAccess.inProgressFrames queueLength:max 1
attr interpolationmode sample-hold
attr source "count(packetEnqueued) - count(packetDequeued)"
attr title "queue length, max"
scalar mobilityDrones.drones[0].wlan[0].mac.dcf.channelAccess.inProgressFrames queueLength:timeavg 0.0045175140757936
attr interpolationmode sample-hold
attr source "count(packetEnqueued) - count(packetDequeued)"
attr title "queue length, timeavg"
scalar mobilityDrones.drones[0].wlan[0].mac.dcf.channelAccess.contention stateChanged:count 6278
attr interpolationmode none
attr title "contention state changed, count"
scalar mobilityDrones.drones[0].wlan[0].mac.dcf.channelAccess.contention channelAccessGranted:count 647
attr title "channel access granted, count"
scalar mobilityDrones.drones[0].wlan[0].mac.dcf.channelAccess channelOwnershipChanged:count 1294
attr interpolationmode sample-hold
attr title "channel ownership, count"
scalar mobilityDrones.drones[0].wlan[0].mac.dcf.originatorMacDataService packetAggregated:count 0
attr title "packets aggregated, count"
scalar mobilityDrones.drones[0].wlan[0].mac.dcf.originatorMacDataService packetFragmented:count 0
attr title "packets fragmented, count"
scalar mobilityDrones.drones[0].wlan[0].mac.dcf.recipientMacDataService packetDropDuplicateDetected:count 1
attr interpolationmode none
attr source packetDropReasonIsDuplicateDetected(packetDropped)
attr title "packet drops: duplicate detected, count"
scalar mobilityDrones.drones[0].wlan[0].mac.dcf.recipientMacDataService packetDropDuplicateDetected:sum(packetBytes) 78
attr interpolationmode none
attr source packetDropReasonIsDuplicateDetected(packetDropped)
attr title "packet drops: duplicate detected, sum(packetBytes)"
scalar mobilityDrones.drones[0].wlan[0].mac.dcf.recipientMacDataService packetDeaggregated:count 0
attr title "packets deaggregated, count"
scalar mobilityDrones.drones[0].wlan[0].mac.dcf.recipientMacDataService packetDefragmented:count 104
attr title "packets defragmented, count"
scalar mobilityDrones.drones[0].wlan[0].mac.dcf.recoveryProcedure retryLimitReached:count 38
attr title "retry limit reached, count"
scalar mobilityDrones.drones[0].wlan[0].mac.dcf packetReceivedFromPeer:count 119
attr interpolationmode none
attr title "packets received, count"
scalar mobilityDrones.drones[0].wlan[0].mac.dcf packetReceivedFromPeer:sum(packetBytes) 7322
attr interpolationmode none
attr title "packets received, sum(packetBytes)"
scalar mobilityDrones.drones[0].wlan[0].mac.dcf packetReceivedFromPeerUnicast:count 43
attr interpolationmode none
attr source ieee80211Unicast(packetReceivedFromPeer)
attr title "packets received: unicast, count"
scalar mobilityDrones.drones[0].wlan[0].mac.dcf packetReceivedFromPeerUnicast:sum(packetBytes) 2458
attr interpolationmode none
attr source ieee80211Unicast(packetReceivedFromPeer)
attr title "packets received: unicast, sum(packetBytes)"
scalar mobilityDrones.drones[0].wlan[0].mac.dcf packetReceivedFromPeerMulticast:count 76
attr interpolationmode none
attr source ieee80211Multicast(packetReceivedFromPeer)
attr title "packets received: multicast, count"
scalar mobilityDrones.drones[0].wlan[0].mac.dcf packetReceivedFromPeerMulticast:sum(packetBytes) 4864
attr interpolationmode none
attr source ieee80211Multicast(packetReceivedFromPeer)
attr title "packets received: multicast, sum(packetBytes)"
scalar mobilityDrones.drones[0].wlan[0].mac.dcf packetReceivedFromPeerBroadcast:count 76
attr interpolationmode none
attr source ieee80211Broadcast(packetReceivedFromPeer)
attr title "packets received: broadcast, count"
scalar mobilityDrones.drones[0].wlan[0].mac.dcf packetReceivedFromPeerBroadcast:sum(packetBytes) 4864
attr interpolationmode none
attr source ieee80211Broadcast(packetReceivedFromPeer)
attr title "packets received: broadcast, sum(packetBytes)"
scalar mobilityDrones.drones[0].wlan[0].mac.dcf packetReceivedFromPeerWithRetry:count 3
attr interpolationmode none
attr source ieee80211Retry(packetReceivedFromPeer)
attr title "packets received: with retry, count"
scalar mobilityDrones.drones[0].wlan[0].mac.dcf packetReceivedFromPeerWithRetry:sum(packetBytes) 234
attr interpolationmode none
attr source ieee80211Retry(packetReceivedFromPeer)
attr title "packets received: with retry, sum(packetBytes)"
scalar mobilityDrones.drones[0].wlan[0].mac.dcf packetReceivedFromPeerWithoutRetry:count 116
attr interpolationmode none
attr source ieee80211NotRetry(packetReceivedFromPeer)
attr title "packets received: without retry, count"
scalar mobilityDrones.drones[0].wlan[0].mac.dcf packetReceivedFromPeerWithoutRetry:sum(packetBytes) 7088
attr interpolationmode none
attr source ieee80211NotRetry(packetReceivedFromPeer)
attr title "packets received: without retry, sum(packetBytes)"
scalar mobilityDrones.drones[0].wlan[0].mac.dcf packetSentToPeer:count 676
attr interpolationmode none
attr title "packets sent, count"
scalar mobilityDrones.drones[0].wlan[0].mac.dcf packetSentToPeer:sum(packetBytes) 50816
attr interpolationmode none
attr title "packets sent, sum(packetBytes)"
scalar mobilityDrones.drones[0].wlan[0].mac.dcf packetSentToPeerUnicast:count 313
attr interpolationmode none
attr source ieee80211Unicast(packetSentToPeer)
attr title "packets sent: unicast, count"
scalar mobilityDrones.drones[0].wlan[0].mac.dcf packetSentToPeerUnicast:sum(packetBytes) 22502
attr interpolationmode none
attr source ieee80211Unicast(packetSentToPeer)
attr title "packets sent: unicast, sum(packetBytes)"
scalar mobilityDrones.drones[0].wlan[0].mac.dcf packetSentToPeerMulticast:count 363
attr interpolationmode none
attr source ieee80211Multicast(packetSentToPeer)
attr title "packets sent: multicast, count"
scalar mobilityDrones.drones[0].wlan[0].mac.dcf packetSentToPeerMulticast:sum(packetBytes) 28314
attr interpolationmode none
attr source ieee80211Multicast(packetSentToPeer)
attr title "packets sent: multicast, sum(packetBytes)"
scalar mobilityDrones.drones[0].wlan[0].mac.dcf packetSentToPeerBroadcast:count 0
attr interpolationmode none
attr source ieee80211Broadcast(packetSentToPeer)
attr title "packets sent: broadcast , count"
scalar mobilityDrones.drones[0].wlan[0].mac.dcf packetSentToPeerBroadcast:sum(packetBytes) 0
attr interpolationmode none
attr source ieee80211Broadcast(packetSentToPeer)
attr title "packets sent: broadcast , sum(packetBytes)"
scalar mobilityDrones.drones[0].wlan[0].mac.dcf packetSentToPeerWithRetry:count 232
attr interpolationmode none
attr source ieee80211Retry(packetSentToPeer)
attr title "packets sent: with retry, count"
scalar mobilityDrones.drones[0].wlan[0].mac.dcf packetSentToPeerWithRetry:sum(packetBytes) 18096
attr interpolationmode none
attr source ieee80211Retry(packetSentToPeer)
attr title "packets sent: with retry, sum(packetBytes)"
scalar mobilityDrones.drones[0].wlan[0].mac.dcf packetSentToPeerWithoutRetry:count 444
attr interpolationmode none
attr source ieee80211NotRetry(packetSentToPeer)
attr title "packets sent: without retry, count"
scalar mobilityDrones.drones[0].wlan[0].mac.dcf packetSentToPeerWithoutRetry:sum(packetBytes) 32720
attr interpolationmode none
attr source ieee80211NotRetry(packetSentToPeer)
attr title "packets sent: without retry, sum(packetBytes)"
scalar mobilityDrones.drones[0].wlan[0].mac.dcf packetDrop:count 81
attr interpolationmode none
attr source packetDropped
attr title "packet drops, count"
scalar mobilityDrones.drones[0].wlan[0].mac.dcf packetDrop:sum(packetBytes) 6318
attr interpolationmode none
attr source packetDropped
attr title "packet drops, sum(packetBytes)"
scalar mobilityDrones.drones[0].wlan[0].mac.dcf packetDropNotAddressedToUs:count 42
attr interpolationmode none
attr source packetDropReasonIsNotAddressedToUs(packetDropped)
attr title "packet drops: not addressed to us, count"
scalar mobilityDrones.drones[0].wlan[0].mac.dcf packetDropNotAddressedToUs:sum(packetBytes) 3276
attr interpolationmode none
attr source packetDropReasonIsNotAddressedToUs(packetDropped)
attr title "packet drops: not addressed to us, sum(packetBytes)"
scalar mobilityDrones.drones[0].wlan[0].mac.dcf packetDropQueueOverflow:count 0
attr interpolationmode none
attr source packetDropReasonIsQueueOverflow(packetDropped)
attr title "packet drops: queue overflow, count"
scalar mobilityDrones.drones[0].wlan[0].mac.dcf packetDropQueueOverflow:sum(packetBytes) 0
attr interpolationmode none
attr source packetDropReasonIsQueueOverflow(packetDropped)
attr title "packet drops: queue overflow, sum(packetBytes)"
scalar mobilityDrones.drones[0].wlan[0].mac.dcf packetDropRetryLimitReached:count 38
attr interpolationmode none
attr source packetDropReasonIsRetryLimitReached(packetDropped)
attr title "packet drops: retry limit reached, count"
scalar mobilityDrones.drones[0].wlan[0].mac.dcf packetDropRetryLimitReached:sum(packetBytes) 2964
attr interpolationmode none
attr source packetDropReasonIsRetryLimitReached(packetDropped)
attr title "packet drops: retry limit reached, sum(packetBytes)"
scalar mobilityDrones.drones[0].wlan[0].mac.dcf linkBroken:count 38
attr interpolationmode none
attr title "link breaks, count"
scalar mobilityDrones.drones[0].wlan[0].mac.dcf frameSequenceFinished:count 647
attr title "finished frame sequences, count"
statistic mobilityDrones.drones[0].wlan[0].mac.dcf frameSequenceDuration:histogram
field count 647
field mean 7.7896241799072e-005
field stddev 2.7087592358784e-005
field min 5.4e-005
field max 0.000109
field sum 0.050398868444
field sqrsum 4.3998769709414e-006
attr source frameSequenceDuration(frameSequenceFinished)
attr title "frame sequence durations, histogram"
bin	-inf	0
bin	0	647
bin	0.01	0
bin	0.02	0
bin	0.03	0
bin	0.04	0
bin	0.05	0
bin	0.06	0
bin	0.07	0
bin	0.08	0
bin	0.09	0
bin	0.1	0
bin	0.11	0
bin	0.12	0
bin	0.13	0
bin	0.14	0
bin	0.15	0
bin	0.16	0
bin	0.17	0
bin	0.18	0
bin	0.19	0
bin	0.2	0
bin	0.21	0
bin	0.22	0
bin	0.23	0
bin	0.24	0
bin	0.25	0
bin	0.26	0
bin	0.27	0
bin	0.28	0
bin	0.29	0
bin	0.3	0
bin	0.31	0
bin	0.32	0
bin	0.33	0
bin	0.34	0
bin	0.35	0
bin	0.36	0
bin	0.37	0
bin	0.38	0
bin	0.39	0
bin	0.4	0
bin	0.41	0
bin	0.42	0
bin	0.43	0
bin	0.44	0
bin	0.45	0
bin	0.46	0
bin	0.47	0
bin	0.48	0
bin	0.49	0
bin	0.5	0
bin	0.51	0
statistic mobilityDrones.drones[0].wlan[0].mac.dcf frameSequenceNumPackets:histogram
field count 647
field mean 1.4389489953632
field stddev 0.49664273078186
field min 1
field max 2
field sum 931
field sqrsum 1499
attr source frameSequenceNumPackets(frameSequenceFinished)
attr title "frame sequences: number of packets, histogram"
bin	-inf	0
bin	0	0
bin	1	363
bin	2	284
bin	3	0
scalar mobilityDrones.drones[0].wlan[0].mac packetReceivedFromLower:count 179
attr interpolationmode none
attr title "packets received from lower layer, count"
scalar mobilityDrones.drones[0].wlan[0].mac packetReceivedFromLower:sum(packetBytes) 11648
attr interpolationmode none
attr title "packets received from lower layer, sum(packetBytes)"
scalar mobilityDrones.drones[0].wlan[0].mac packetSentToLower:count 676
attr interpolationmode none
attr title "packets sent to lower layer, count"
scalar mobilityDrones.drones[0].wlan[0].mac packetSentToLower:sum(packetBytes) 50816
attr interpolationmode none
attr title "packets sent to lower layer, sum(packetBytes)"
scalar mobilityDrones.drones[0].wlan[0].mac packetReceivedFromUpper:count 415
attr interpolationmode none
attr title "packets received from upper layer, count"
scalar mobilityDrones.drones[0].wlan[0].mac packetReceivedFromUpper:sum(packetBytes) 20694
attr interpolationmode none
attr title "packets received from upper layer, sum(packetBytes)"
scalar mobilityDrones.drones[0].wlan[0].mac packetSentToUpper:count 104
attr interpolationmode none
attr title "packets sent to upper layer, count"
scalar mobilityDrones.drones[0].wlan[0].mac packetSentToUpper:sum(packetBytes) 4136
attr interpolationmode none
attr title "packets sent to upper layer, sum(packetBytes)"
scalar mobilityDrones.drones[0].wlan[0].mac packetDrop:count 99
attr interpolationmode none
attr source packetDropped
attr title "packet drops, count"
scalar mobilityDrones.drones[0].wlan[0].mac packetDrop:sum(packetBytes) 7368
attr interpolationmode none
attr source packetDropped
attr title "packet drops, sum(packetBytes)"
scalar mobilityDrones.drones[0].wlan[0].mac packetDropIncorrectlyReceived:count 18
attr interpolationmode none
attr source packetDropReasonIsIncorrectlyReceived(packetDropped)
attr title "packet drops: incorrectly received, count"
scalar mobilityDrones.drones[0].wlan[0].mac packetDropIncorrectlyReceived:sum(packetBytes) 1050
attr interpolationmode none
attr source packetDropReasonIsIncorrectlyReceived(packetDropped)
attr title "packet drops: incorrectly received, sum(packetBytes)"
scalar mobilityDrones.drones[0].wlan[0].mac packetDropNotAddressedToUs:count 42
attr interpolationmode none
attr source packetDropReasonIsNotAddressedToUs(packetDropped)
attr title "packet drops: not addressed to us, count"
scalar mobilityDrones.drones[0].wlan[0].mac packetDropNotAddressedToUs:sum(packetBytes) 3276
attr interpolationmode none
attr source packetDropReasonIsNotAddressedToUs(packetDropped)
attr title "packet drops: not addressed to us, sum(packetBytes)"
scalar mobilityDrones.drones[0].wlan[0].mac packetDropQueueOverflow:count 0
attr interpolationmode none
attr source packetDropReasonIsQueueOverflow(packetDropped)
attr title "packet drops: queue overflow, count"
scalar mobilityDrones.drones[0].wlan[0].mac packetDropQueueOverflow:sum(packetBytes) 0
attr interpolationmode none
attr source packetDropReasonIsQueueOverflow(packetDropped)
attr title "packet drops: queue overflow, sum(packetBytes)"
scalar mobilityDrones.drones[0].wlan[0].mac packetDropRetryLimitReached:count 38
attr interpolationmode none
attr source packetDropReasonIsRetryLimitReached(packetDropped)
attr title "packet drops: retry limit reached, count"
scalar mobilityDrones.drones[0].wlan[0].mac packetDropRetryLimitReached:sum(packetBytes) 2964
attr interpolationmode none
attr source packetDropReasonIsRetryLimitReached(packetDropped)
attr title "packet drops: retry limit reached, sum(packetBytes)"
scalar mobilityDrones.drones[0].wlan[0].mac packetDropDuplicateDetected:count 1
attr interpolationmode none
attr source packetDropReasonIsDuplicateDetected(packetDropped)
attr title "packet drops: duplicate detected, count"
scalar mobilityDrones.drones[0].wlan[0].mac packetDropDuplicateDetected:sum(packetBytes) 78
attr interpolationmode none
attr source packetDropReasonIsDuplicateDetected(packetDropped)
attr title "packet drops: duplicate detected, sum(packetBytes)"
scalar mobilityDrones.drones[0].wlan[0].mac packetDropOther:count 0
attr interpolationmode none
attr source packetDropReasonIsOther(packetDropped)
attr title "packet drops: other, count"
scalar mobilityDrones.drones[0].wlan[0].mac packetDropOther:sum(packetBytes) 0
attr interpolationmode none
attr source packetDropReasonIsOther(packetDropped)
attr title "packet drops: other, sum(packetBytes)"
scalar mobilityDrones.drones[0].wlan[0].mac linkBroken:count 38
attr interpolationmode none
attr title "link breaks, count"
statistic mobilityDrones.drones[0].wlan[0].radio minSnir:histogram
field count 179
field mean 46.089599082545
field stddev 34.279610543151
field min 14.612444442798
field max 127.40613701564
field sum 8250.0382357755
field sqrsum 589407.2771228
attr source minimumSnir(packetSentToUpper)
attr title "Min SNIR, histogram"
bin	-inf	0
bin	0	0
bin	2	0
bin	4	0
bin	6	0
bin	8	0
bin	10	0
bin	12	0
bin	14	15
bin	16	28
bin	18	13
bin	20	5
bin	22	14
bin	24	6
bin	26	3
bin	28	2
bin	30	12
bin	32	1
bin	34	1
bin	36	0
bin	38	8
bin	40	3
bin	42	0
bin	44	1
bin	46	9
bin	48	0
bin	50	0
bin	52	2
bin	54	2
bin	56	0
bin	58	1
bin	60	1
bin	62	9
bin	64	1
bin	66	1
bin	68	0
bin	70	0
bin	72	0
bin	74	4
bin	76	0
bin	78	0
bin	80	1
bin	82	1
bin	84	1
bin	86	2
bin	88	0
bin	90	1
bin	92	0
bin	94	7
bin	96	1
bin	98	1
bin	100	1
bin	102	0
bin	104	1
bin	106	0
bin	108	5
bin	110	2
bin	112	2
bin	114	1
bin	116	1
bin	118	4
bin	120	2
bin	122	2
bin	124	0
bin	126	1
bin	128	0
bin	130	0
bin	132	0
bin	134	0
bin	136	0
bin	138	0
bin	140	0
bin	142	0
bin	144	0
bin	146	0
bin	148	0
bin	150	0
bin	152	0
bin	154	0
bin	156	0
statistic mobilityDrones.drones[0].wlan[0].radio packetErrorRate:histogram
field count 179
field mean 0.072686063531751
field stddev 0.15448253869304
field min 0
field max 0.86090994136696
field sum 13.010805372183
field sqrsum 5.193648373348
attr source packetErrorRate(packetSentToUpper)
attr title "Packet error rate, histogram"
bin	-inf	0
bin	0	123
bin	0.02	8
bin	0.04	5
bin	0.06	3
bin	0.08	2
bin	0.1	6
bin	0.12	2
bin	0.14	2
bin	0.16	3
bin	0.18	2
bin	0.2	1
bin	0.22	2
bin	0.24	2
bin	0.26	0
bin	0.28	0
bin	0.3	1
bin	0.32	0
bin	0.34	2
bin	0.36	0
bin	0.38	1
bin	0.4	2
bin	0.42	1
bin	0.44	4
bin	0.46	0
bin	0.48	1
bin	0.5	1
bin	0.52	0
bin	0.54	1
bin	0.56	0
bin	0.58	1
bin	0.6	1
bin	0.62	0
bin	0.64	0
bin	0.66	0
bin	0.68	0
bin	0.7	0
bin	0.72	1
bin	0.74	0
bin	0.76	0
bin	0.78	0
bin	0.8	0
bin	0.82	0
bin	0.84	0
bin	0.86	1
bin	0.88	0
bin	0.9	0
bin	0.92	0
bin	0.94	0
bin	0.96	0
bin	0.98	0
bin	1	0
bin	1.02	0
bin	1.04	0
bin	1.06	0
bin	1.08	0
statistic mobilityDrones.drones[0].wlan[0].radio bitErrorRate:histogram
field count 0
field mean nan
field stddev nan
field min nan
field max nan
field sum 0
field sqrsum 0
attr source bitErrorRate(packetSentToUpper)
attr title "Bit error rate, histogram"
bin	-inf	0
bin	0	0
bin	1	0
statistic mobilityDrones.drones[0].wlan[0].radio symbolErrorRate:histogram
field count 0
field mean nan
field stddev nan
field min nan
field max nan
field sum 0
field sqrsum 0
attr source symbolErrorRate(packetSentToUpper)
attr title "Symbol error rate, histogram"
bin	-inf	0
bin	0	0
bin	1	0
scalar mobilityDrones.drones[0].wlan[0].radio transmissionState:count 2704
attr interpolationmode sample-hold
attr source transmissionStateChanged
attr title "Radio transmission state, count"
scalar mobilityDrones.drones[0].wlan[0].radio receptionState:count 1779
attr interpolationmode sample-hold
attr source receptionStateChanged
attr title "Radio reception state, count"
scalar mobilityDrones.drones[0].wlan[0].radio radioMode:count 1355
attr interpolationmode sample-hold
attr source radioModeChanged
attr title "Radio mode, count"
statistic mobilityDrones.drones[0].wlan[0].radio radioChannel:histogram
field count 1
field mean 0
field stddev nan
field min 0
field max 0
field sum 0
field sqrsum 0
attr interpolationmode sample-hold
attr source radioChannelChanged
attr title "Radio channel, histogram"
bin	-inf	0
bin	-0.5	0
bin	-0.48	0
bin	-0.46	0
bin	-0.44	0
bin	-0.42	0
bin	-0.4	0
bin	-0.38	0
bin	-0.36	0
bin	-0.34	0
bin	-0.32	0
bin	-0.3	0
bin	-0.28	0
bin	-0.26	0
bin	-0.24	0
bin	-0.22	0
bin	-0.2	0
bin	-0.18	0
bin	-0.16	0
bin	-0.14	0
bin	-0.12	0
bin	-0.1	0
bin	-0.08	0
bin	-0.06	0
bin	-0.04	0
bin	-0.02	0
bin	0	1
bin	0.02	0
bin	0.04	0
bin	0.06	0
bin	0.08	0
bin	0.1	0
bin	0.12	0
bin	0.14	0
bin	0.16	0
bin	0.18	0
bin	0.2	0
bin	0.22	0
bin	0.24	0
bin	0.26	0
bin	0.28	0
bin	0.3	0
bin	0.32	0
bin	0.34	0
bin	0.36	0
bin	0.38	0
bin	0.4	0
bin	0.42	0
bin	0.44	0
bin	0.46	0
bin	0.48	0
bin	0.5	0
scalar mobilityDrones.drones[0].ipv4.ip packetDropAddressResolutionFailed:count 0
attr interpolationmode none
attr source packetDropReasonIsAddressResolutionFailed(packetDropped)
attr title "packet drop: address resolution failed, count"
scalar mobilityDrones.drones[0].ipv4.ip packetDropAddressResolutionFailed:sum(packetBytes) 0
attr interpolationmode none
attr source packetDropReasonIsAddressResolutionFailed(packetDropped)
attr title "packet drop: address resolution failed, sum(packetBytes)"
scalar mobilityDrones.drones[0].ipv4.ip packetDropHopLimitReached:count 0
attr interpolationmode none
attr source packetDropReasonIsHopLimitReached(packetDropped)
attr title "packet drop: hop limit reached, count"
scalar mobilityDrones.drones[0].ipv4.ip packetDropHopLimitReached:sum(packetBytes) 0
attr interpolationmode none
attr source packetDropReasonIsHopLimitReached(packetDropped)
attr title "packet drop: hop limit reached, sum(packetBytes)"
scalar mobilityDrones.drones[0].ipv4.ip packetDropForwardingDisabled:count 0
attr interpolationmode none
attr source packetDropReasonIsForwardingDisabled(packetDropped)
attr title "packet drop: forwarding disabled, count"
scalar mobilityDrones.drones[0].ipv4.ip packetDropForwardingDisabled:sum(packetBytes) 0
attr interpolationmode none
attr source packetDropReasonIsForwardingDisabled(packetDropped)
attr title "packet drop: forwarding disabled, sum(packetBytes)"
scalar mobilityDrones.drones[0].ipv4.ip packetDropNoInterfaceFound:count 0
attr interpolationmode none
attr source packetDropReasonIsNoInterfaceFound(packetDropped)
attr title "packet drop: no interface found, count"
scalar mobilityDrones.drones[0].ipv4.ip packetDropNoInterfaceFound:sum(packetBytes) 0
attr interpolationmode none
attr source packetDropReasonIsNoInterfaceFound(packetDropped)
attr title "packet drop: no interface found, sum(packetBytes)"
scalar mobilityDrones.drones[0].ipv4.ip packetDropNoRouteFound:count 0
attr interpolationmode none
attr source packetDropReasonIsNoRouteFound(packetDropped)
attr title "packet drop: no route found, count"
scalar mobilityDrones.drones[0].ipv4.ip packetDropNoRouteFound:sum(packetBytes) 0
attr interpolationmode none
attr source packetDropReasonIsNoRouteFound(packetDropped)
attr title "packet drop: no route found, sum(packetBytes)"
scalar mobilityDrones.drones[0].ipv4.ip packetDropUndefined:count 0
attr interpolationmode none
attr source packetDropReasonIsUndefined(packetDropped)
attr title "packet drop: undefined, count"
scalar mobilityDrones.drones[0].ipv4.ip packetDropUndefined:sum(packetBytes) 0
attr interpolationmode none
attr source packetDropReasonIsUndefined(packetDropped)
attr title "packet drop: undefined, sum(packetBytes)"
scalar mobilityDrones.drones[0].ipv4.arp arpReplySent:count 4
attr source arpReplySent
attr title "ARP replies sent, count"
scalar mobilityDrones.drones[0].ipv4.arp arpReplySent:sum(packetBytes) 112
attr source arpReplySent
attr title "ARP replies sent, sum(packetBytes)"
scalar mobilityDrones.drones[0].ipv4.arp arpRequestSent:count 0
attr source arpRequestSent
attr title "ARP request sent, count"
scalar mobilityDrones.drones[0].ipv4.arp arpRequestSent:sum(packetBytes) 0
attr source arpRequestSent
attr title "ARP request sent, sum(packetBytes)"
scalar mobilityDrones.drones[0].ipv4.arp arpResolutionFailed:count 0
attr title "ARP failed resolutions, count"
scalar mobilityDrones.drones[0].ipv4.arp arpResolutionCompleted:count 60
attr title "ARP completed resolutions, count"
scalar mobilityDrones.drones[0].ipv4.arp arpResolutionInitiated:count 0
attr title "ARP initiated resolutions, count"
scalar mobilityDrones.drones[0].udp packetReceived:count 391
attr interpolationmode none
attr source packetReceived
attr title "packets received, count"
scalar mobilityDrones.drones[0].udp packetReceived:sum(packetBytes) 8602
attr interpolationmode none
attr source packetReceived
attr title "packets received, sum(packetBytes)"
scalar mobilityDrones.drones[0].udp packetSent:count 411
attr interpolationmode none
attr source packetSent
attr title "packets sent, count"
scalar mobilityDrones.drones[0].udp packetSent:sum(packetBytes) 9042
attr interpolationmode none
attr source packetSent
attr title "packets sent, sum(packetBytes)"
scalar mobilityDrones.drones[0].udp passedUpPk:count 391
attr interpolationmode none
attr source packetSentToUpper
attr title "packets passed up, count"
scalar mobilityDrones.drones[0].udp droppedPkWrongPort:count 0
attr interpolationmode none
attr source packetDropReasonIsNoPortFound(packetDropped)
attr title "packets dropped (wrong port), count"
scalar mobilityDrones.drones[0].udp droppedPkBadChecksum:count 0
attr interpolationmode none
attr source packetDropReasonIsIncorrectlyReceived(packetDropped)
attr title "packets dropped (checksum error), count"
scalar mobilityDrones.drones[0].app[0] "packets sent" 411
scalar mobilityDrones.drones[0].app[0] "packets received" 0
scalar mobilityDrones.drones[0].app[0] packetReceived:count 28
attr interpolationmode none
attr source packetReceived
attr title "packets received, count"
scalar mobilityDrones.drones[0].app[0] packetReceived:sum(packetBytes) 392
attr interpolationmode none
attr source packetReceived
attr title "packets received, sum(packetBytes)"
statistic mobilityDrones.drones[0].app[0] rcvdPkLifetime:stats
field count 28
field mean 0.0028421742937143
field stddev 0.0070166945167146
field min 5.4220912e-005
field max 0.033180401144
field sum 0.079580880224
field sqrsum 0.0015555007844479
attr interpolationmode none
attr source dataAge(packetReceived)
attr title "received packet lifetime, stats"
attr unit s
scalar mobilityDrones.drones[0].app[0] packetSent:count 411
attr interpolationmode none
attr source packetSent
attr title "packets sent, count"
scalar mobilityDrones.drones[0].app[0] packetSent:sum(packetBytes) 5754
attr interpolationmode none
attr source packetSent
attr title "packets sent, sum(packetBytes)"
scalar mobilityDrones.drones[1].lo[0].lo rcvdPkFromHl:count 284
attr interpolationmode none
attr source packetReceivedFromUpper
attr title "packets received from higher layer, count"
scalar mobilityDrones.drones[1].lo[0].lo rcvdPkFromHl:sum(packetBytes) 11928
attr interpolationmode none
attr source packetReceivedFromUpper
attr title "packets received from higher layer, sum(packetBytes)"
scalar mobilityDrones.drones[1].lo[0].lo passedUpPk:count 284
attr interpolationmode none
attr source packetSentToUpper
attr title "packets passed to higher layer, count"
scalar mobilityDrones.drones[1].lo[0].lo passedUpPk:sum(packetBytes) 11928
attr interpolationmode none
attr source packetSentToUpper
attr title "packets passed to higher layer, sum(packetBytes)"
scalar mobilityDrones.drones[1].wlan[0].mac.dcf.channelAccess.pendingQueue packetPopped:count 385
attr interpolationmode none
attr title "packet popped, count"
scalar mobilityDrones.drones[1].wlan[0].mac.dcf.channelAccess.pendingQueue packetPopped:sum(packetBytes) 29960
attr interpolationmode none
attr title "packet popped, sum(packetBytes)"
statistic mobilityDrones.drones[1].wlan[0].mac.dcf.channelAccess.pendingQueue queueingTime:histogram
field count 385
field mean 0.00042350649350649
field stddev 0.002378498698318
field min 0
field max 0.019834
field sum 0.16305
field sqrsum 0.00224143906
attr interpolationmode none
attr source queueingTime(packetPopped)
attr title "queueing times, histogram"
attr unit s
bin	-inf	0
bin	-0.5	0
bin	-0.48	0
bin	-0.46	0
bin	-0.44	0
bin	-0.42	0
bin	-0.4	0
bin	-0.38	0
bin	-0.36	0
bin	-0.34	0
bin	-0.32	0
bin	-0.3	0
bin	-0.28	0
bin	-0.26	0
bin	-0.24	0
bin	-0.22	0
bin	-0.2	0
bin	-0.18	0
bin	-0.16	0
bin	-0.14	0
bin	-0.12	0
bin	-0.1	0
bin	-0.08	0
bin	-0.06	0
bin	-0.04	0
bin	-0.02	0
bin	0	385
bin	0.02	0
bin	0.04	0
bin	0.06	0
bin	0.08	0
bin	0.1	0
bin	0.12	0
bin	0.14	0
bin	0.16	0
bin	0.18	0
bin	0.2	0
bin	0.22	0
bin	0.24	0
bin	0.26	0
bin	0.28	0
bin	0.3	0
bin	0.32	0
bin	0.34	0
bin	0.36	0
bin	0.38	0
bin	0.4	0
bin	0.42	0
bin	0.44	0
bin	0.46	0
bin	0.48	0
bin	0.5	0
scalar mobilityDrones.drones[1].wlan[0].mac.dcf.channelAccess.pendingQueue queueLength:max 1
attr interpolationmode sample-hold
attr source "count(packetPushed) - count(packetPopped) - count(packetRemoved) - count(packetDropped)"
attr title "queue length, max"
scalar mobilityDrones.drones[1].wlan[0].mac.dcf.channelAccess.pendingQueue queueLength:timeavg 0.00044897740001085
attr interpolationmode sample-hold
attr source "count(packetPushed) - count(packetPopped) - count(packetRemoved) - count(packetDropped)"
attr title "queue length, timeavg"
scalar mobilityDrones.drones[1].wlan[0].mac.dcf.channelAccess.pendingQueue packetPushed:count 385
attr interpolationmode none
attr title "packet pushed, count"
scalar mobilityDrones.drones[1].wlan[0].mac.dcf.channelAccess.pendingQueue packetPushed:sum(packetBytes) 29960
attr interpolationmode none
attr title "packet pushed, sum(packetBytes)"
scalar mobilityDrones.drones[1].wlan[0].mac.dcf.channelAccess.pendingQueue packetDropQueueOverflow:count 0
attr interpolationmode none
attr source packetDropReasonIsQueueOverflow(packetDropped)
attr title "packet drops: queue overflow, count"
scalar mobilityDrones.drones[1].wlan[0].mac.dcf.channelAccess.pendingQueue packetDropQueueOverflow:sum(packetBytes) 0
attr interpolationmode none
attr source packetDropReasonIsQueueOverflow(packetDropped)
attr title "packet drops: queue overflow, sum(packetBytes)"
scalar mobilityDrones.drones[1].wlan[0].mac.dcf.channelAccess.pendingQueue packetRemoved:count 0
attr interpolationmode none
attr title "packets removed, count"
scalar mobilityDrones.drones[1].wlan[0].mac.dcf.channelAccess.pendingQueue packetRemoved:sum(packetBytes) 0
attr interpolationmode none
attr title "packets removed, sum(packetBytes)"
statistic mobilityDrones.drones[1].wlan[0].mac.dcf.channelAccess.inProgressFrames queueingTime:histogram
field count 385
field mean 0.0074035012317169
field stddev 0.018462374809449
field min 5e-005
field max 0.097217
field sum 2.850347974211
field sqrsum 0.15199251964205
attr interpolationmode none
attr source queueingTime(packetDequeued)
attr title "queueing times, histogram"
bin	-inf	0
bin	0	323
bin	0.01	4
bin	0.02	13
bin	0.03	10
bin	0.04	13
bin	0.05	7
bin	0.06	7
bin	0.07	5
bin	0.08	2
bin	0.09	1
bin	0.1	0
bin	0.11	0
bin	0.12	0
bin	0.13	0
bin	0.14	0
bin	0.15	0
bin	0.16	0
bin	0.17	0
bin	0.18	0
bin	0.19	0
bin	0.2	0
bin	0.21	0
bin	0.22	0
bin	0.23	0
bin	0.24	0
bin	0.25	0
bin	0.26	0
bin	0.27	0
bin	0.28	0
bin	0.29	0
bin	0.3	0
bin	0.31	0
bin	0.32	0
bin	0.33	0
bin	0.34	0
bin	0.35	0
bin	0.36	0
bin	0.37	0
bin	0.38	0
bin	0.39	0
bin	0.4	0
bin	0.41	0
bin	0.42	0
bin	0.43	0
bin	0.44	0
bin	0.45	0
bin	0.46	0
bin	0.47	0
bin	0.48	0
bin	0.49	0
bin	0.5	0
bin	0.51	0
scalar mobilityDrones.drones[1].wlan[0].mac.dcf.channelAccess.inProgressFrames queueLength:max 1
attr interpolationmode sample-hold
attr source "count(packetEnqueued) - count(packetDequeued)"
attr title "queue length, max"
scalar mobilityDrones.drones[1].wlan[0].mac.dcf.channelAccess.inProgressFrames queueLength:timeavg 0.0078487692277672
attr interpolationmode sample-hold
attr source "count(packetEnqueued) - count(packetDequeued)"
attr title "queue length, timeavg"
scalar mobilityDrones.drones[1].wlan[0].mac.dcf.channelAccess.contention stateChanged:count 7742
attr interpolationmode none
attr title "contention state changed, count"
scalar mobilityDrones.drones[1].wlan[0].mac.dcf.channelAccess.contention channelAccessGranted:count 757
attr title "channel access granted, count"
scalar mobilityDrones.drones[1].wlan[0].mac.dcf.channelAccess channelOwnershipChanged:count 1514
attr interpolationmode sample-hold
attr title "channel ownership, count"
scalar mobilityDrones.drones[1].wlan[0].mac.dcf.originatorMacDataService packetAggregated:count 0
attr title "packets aggregated, count"
scalar mobilityDrones.drones[1].wlan[0].mac.dcf.originatorMacDataService packetFragmented:count 0
attr title "packets fragmented, count"
scalar mobilityDrones.drones[1].wlan[0].mac.dcf.recipientMacDataService packetDropDuplicateDetected:count 3
attr interpolationmode none
attr source packetDropReasonIsDuplicateDetected(packetDropped)
attr title "packet drops: duplicate detected, count"
scalar mobilityDrones.drones[1].wlan[0].mac.dcf.recipientMacDataService packetDropDuplicateDetected:sum(packetBytes) 234
attr interpolationmode none
attr source packetDropReasonIsDuplicateDetected(packetDropped)
attr title "packet drops: duplicate detected, sum(packetBytes)"
scalar mobilityDrones.drones[1].wlan[0].mac.dcf.recipientMacDataService packetDeaggregated:count 0
attr title "packets deaggregated, count"
scalar mobilityDrones.drones[1].wlan[0].mac.dcf.recipientMacDataService packetDefragmented:count 95
attr title "packets defragmented, count"
scalar mobilityDrones.drones[1].wlan[0].mac.dcf.recoveryProcedure retryLimitReached:count 60
attr title "retry limit reached, count"
scalar mobilityDrones.drones[1].wlan[0].mac.dcf packetReceivedFromPeer:count 137
attr interpolationmode none
attr title "packets received, count"
scalar mobilityDrones.drones[1].wlan[0].mac.dcf packetReceivedFromPeer:sum(packetBytes) 7728
attr interpolationmode none
attr title "packets received, sum(packetBytes)"
scalar mobilityDrones.drones[1].wlan[0].mac.dcf packetReceivedFromPeerUnicast:count 81
attr interpolationmode none
attr source ieee80211Unicast(packetReceivedFromPeer)
attr title "packets received: unicast, count"
scalar mobilityDrones.drones[1].wlan[0].mac.dcf packetReceivedFromPeerUnicast:sum(packetBytes) 3794
attr interpolationmode none
attr source ieee80211Unicast(packetReceivedFromPeer)
attr title "packets received: unicast, sum(packetBytes)"
scalar mobilityDrones.drones[1].wlan[0].mac.dcf packetReceivedFromPeerMulticast:count 56
attr interpolationmode none
attr source ieee80211Multicast(packetReceivedFromPeer)
attr title "packets received: multicast, count"
scalar mobilityDrones.drones[1].wlan[0].mac.dcf packetReceivedFromPeerMulticast:sum(packetBytes) 3934
attr interpolationmode none
attr source ieee80211Multicast(packetReceivedFromPeer)
attr title "packets received: multicast, sum(packetBytes)"
scalar mobilityDrones.drones[1].wlan[0].mac.dcf packetReceivedFromPeerBroadcast:count 31
attr interpolationmode none
attr source ieee80211Broadcast(packetReceivedFromPeer)
attr title "packets received: broadcast, count"
scalar mobilityDrones.drones[1].wlan[0].mac.dcf packetReceivedFromPeerBroadcast:sum(packetBytes) 1984
attr interpolationmode none
attr source ieee80211Broadcast(packetReceivedFromPeer)
attr title "packets received: broadcast, sum(packetBytes)"
scalar mobilityDrones.drones[1].wlan[0].mac.dcf packetReceivedFromPeerWithRetry:count 7
attr interpolationmode none
attr source ieee80211Retry(packetReceivedFromPeer)
attr title "packets received: with retry, count"
scalar mobilityDrones.drones[1].wlan[0].mac.dcf packetReceivedFromPeerWithRetry:sum(packetBytes) 546
attr interpolationmode none
attr source ieee80211Retry(packetReceivedFromPeer)
attr title "packets received: with retry, sum(packetBytes)"
scalar mobilityDrones.drones[1].wlan[0].mac.dcf packetReceivedFromPeerWithoutRetry:count 130
attr interpolationmode none
attr source ieee80211NotRetry(packetReceivedFromPeer)
attr title "packets received: without retry, count"
scalar mobilityDrones.drones[1].wlan[0].mac.dcf packetReceivedFromPeerWithoutRetry:sum(packetBytes) 7182
attr interpolationmode none
attr source ieee80211NotRetry(packetReceivedFromPeer)
attr title "packets received: without retry, sum(packetBytes)"
scalar mobilityDrones.drones[1].wlan[0].mac.dcf packetSentToPeer:count 799
attr interpolationmode none
attr title "packets sent, count"
scalar mobilityDrones.drones[1].wlan[0].mac.dcf packetSentToPeer:sum(packetBytes) 59550
attr interpolationmode none
attr title "packets sent, sum(packetBytes)"
scalar mobilityDrones.drones[1].wlan[0].mac.dcf packetSentToPeerUnicast:count 513
attr interpolationmode none
attr source ieee80211Unicast(packetSentToPeer)
attr title "packets sent: unicast, count"
scalar mobilityDrones.drones[1].wlan[0].mac.dcf packetSentToPeerUnicast:sum(packetBytes) 37270
attr interpolationmode none
attr source ieee80211Unicast(packetSentToPeer)
attr title "packets sent: unicast, sum(packetBytes)"
scalar mobilityDrones.drones[1].wlan[0].mac.dcf packetSentToPeerMulticast:count 286
attr interpolationmode none
attr source ieee80211Multicast(packetSentToPeer)
attr title "packets sent: multicast, count"
scalar mobilityDrones.drones[1].wlan[0].mac.dcf packetSentToPeerMulticast:sum(packetBytes) 22280
attr interpolationmode none
attr source ieee80211Multicast(packetSentToPeer)
attr title "packets sent: multicast, sum(packetBytes)"
scalar mobilityDrones.drones[1].wlan[0].mac.dcf packetSentToPeerBroadcast:count 2
attr interpolationmode none
attr source ieee80211Broadcast(packetSentToPeer)
attr title "packets sent: broadcast , count"
scalar mobilityDrones.drones[1].wlan[0].mac.dcf packetSentToPeerBroadcast:sum(packetBytes) 128
attr interpolationmode none
attr source ieee80211Broadcast(packetSentToPeer)
attr title "packets sent: broadcast , sum(packetBytes)"
scalar mobilityDrones.drones[1].wlan[0].mac.dcf packetSentToPeerWithRetry:count 372
attr interpolationmode none
attr source ieee80211Retry(packetSentToPeer)
attr title "packets sent: with retry, count"
scalar mobilityDrones.drones[1].wlan[0].mac.dcf packetSentToPeerWithRetry:sum(packetBytes) 29002
attr interpolationmode none
attr source ieee80211Retry(packetSentToPeer)
attr title "packets sent: with retry, sum(packetBytes)"
scalar mobilityDrones.drones[1].wlan[0].mac.dcf packetSentToPeerWithoutRetry:count 427
attr interpolationmode none
attr source ieee80211NotRetry(packetSentToPeer)
attr title "packets sent: without retry, count"
scalar mobilityDrones.drones[1].wlan[0].mac.dcf packetSentToPeerWithoutRetry:sum(packetBytes) 30548
attr interpolationmode none
attr source ieee80211NotRetry(packetSentToPeer)
attr title "packets sent: without retry, sum(packetBytes)"
scalar mobilityDrones.drones[1].wlan[0].mac.dcf packetDrop:count 155
attr interpolationmode none
attr source packetDropped
attr title "packet drops, count"
scalar mobilityDrones.drones[1].wlan[0].mac.dcf packetDrop:sum(packetBytes) 12090
attr interpolationmode none
attr source packetDropped
attr title "packet drops, sum(packetBytes)"
scalar mobilityDrones.drones[1].wlan[0].mac.dcf packetDropNotAddressedToUs:count 92
attr interpolationmode none
attr source packetDropReasonIsNotAddressedToUs(packetDropped)
attr title "packet drops: not addressed to us, count"
scalar mobilityDrones.drones[1].wlan[0].mac.dcf packetDropNotAddressedToUs:sum(packetBytes) 7176
attr interpolationmode none
attr source packetDropReasonIsNotAddressedToUs(packetDropped)
attr title "packet drops: not addressed to us, sum(packetBytes)"
scalar mobilityDrones.drones[1].wlan[0].mac.dcf packetDropQueueOverflow:count 0
attr interpolationmode none
attr source packetDropReasonIsQueueOverflow(packetDropped)
attr title "packet drops: queue overflow, count"
scalar mobilityDrones.drones[1].wlan[0].mac.dcf packetDropQueueOverflow:sum(packetBytes) 0
attr interpolationmode none
attr source packetDropReasonIsQueueOverflow(packetDropped)
attr title "packet drops: queue overflow, sum(packetBytes)"
scalar mobilityDrones.drones[1].wlan[0].mac.dcf packetDropRetryLimitReached:count 60
attr interpolationmode none
attr source packetDropReasonIsRetryLimitReached(packetDropped)
attr title "packet drops: retry limit reached, count"
scalar mobilityDrones.drones[1].wlan[0].mac.dcf packetDropRetryLimitReached:sum(packetBytes) 4680
attr interpolationmode none
attr source packetDropReasonIsRetryLimitReached(packetDropped)
attr title "packet drops: retry limit reached, sum(packetBytes)"
scalar mobilityDrones.drones[1].wlan[0].mac.dcf linkBroken:count 60
attr interpolationmode none
attr title "link breaks, count"
scalar mobilityDrones.drones[1].wlan[0].mac.dcf frameSequenceFinished:count 757
attr title "finished frame sequences, count"
statistic mobilityDrones.drones[1].wlan[0].mac.dcf frameSequenceDuration:histogram
field count 757
field mean 8.7660737190224e-005
field stddev 2.6371388887049e-005
field min 5e-005
field max 0.000109
field sum 0.066359178052999
field sqrsum 6.3428547822482e-006
attr source frameSequenceDuration(frameSequenceFinished)
attr title "frame sequence durations, histogram"
bin	-inf	0
bin	0	757
bin	0.01	0
bin	0.02	0
bin	0.03	0
bin	0.04	0
bin	0.05	0
bin	0.06	0
bin	0.07	0
bin	0.08	0
bin	0.09	0
bin	0.1	0
bin	0.11	0
bin	0.12	0
bin	0.13	0
bin	0.14	0
bin	0.15	0
bin	0.16	0
bin	0.17	0
bin	0.18	0
bin	0.19	0
bin	0.2	0
bin	0.21	0
bin	0.22	0
bin	0.23	0
bin	0.24	0
bin	0.25	0
bin	0.26	0
bin	0.27	0
bin	0.28	0
bin	0.29	0
bin	0.3	0
bin	0.31	0
bin	0.32	0
bin	0.33	0
bin	0.34	0
bin	0.35	0
bin	0.36	0
bin	0.37	0
bin	0.38	0
bin	0.39	0
bin	0.4	0
bin	0.41	0
bin	0.42	0
bin	0.43	0
bin	0.44	0
bin	0.45	0
bin	0.46	0
bin	0.47	0
bin	0.48	0
bin	0.49	0
bin	0.5	0
bin	0.51	0
statistic mobilityDrones.drones[1].wlan[0].mac.dcf frameSequenceNumPackets:histogram
field count 757
field mean 1.6221928665786
field stddev 0.48515960369775
field min 1
field max 2
field sum 1228
field sqrsum 2170
attr source frameSequenceNumPackets(frameSequenceFinished)
attr title "frame sequences: number of packets, histogram"
bin	-inf	0
bin	0	0
bin	1	286
bin	2	471
bin	3	0
scalar mobilityDrones.drones[1].wlan[0].mac packetReceivedFromLower:count 265
attr interpolationmode none
attr title "packets received from lower layer, count"
scalar mobilityDrones.drones[1].wlan[0].mac packetReceivedFromLower:sum(packetBytes) 17578
attr interpolationmode none
attr title "packets received from lower layer, sum(packetBytes)"
scalar mobilityDrones.drones[1].wlan[0].mac packetSentToLower:count 799
attr interpolationmode none
attr title "packets sent to lower layer, count"
scalar mobilityDrones.drones[1].wlan[0].mac packetSentToLower:sum(packetBytes) 59550
attr interpolationmode none
attr title "packets sent to lower layer, sum(packetBytes)"
scalar mobilityDrones.drones[1].wlan[0].mac packetReceivedFromUpper:count 385
attr interpolationmode none
attr title "packets received from upper layer, count"
scalar mobilityDrones.drones[1].wlan[0].mac packetReceivedFromUpper:sum(packetBytes) 19180
attr interpolationmode none
attr title "packets received from upper layer, sum(packetBytes)"
scalar mobilityDrones.drones[1].wlan[0].mac packetSentToUpper:count 95
attr interpolationmode none
attr title "packets sent to upper layer, count"
scalar mobilityDrones.drones[1].wlan[0].mac packetSentToUpper:sum(packetBytes) 4288
attr interpolationmode none
attr title "packets sent to upper layer, sum(packetBytes)"
scalar mobilityDrones.drones[1].wlan[0].mac packetDrop:count 191
attr interpolationmode none
attr source packetDropped
attr title "packet drops, count"
scalar mobilityDrones.drones[1].wlan[0].mac packetDrop:sum(packetBytes) 14764
attr interpolationmode none
attr source packetDropped
attr title "packet drops, sum(packetBytes)"
scalar mobilityDrones.drones[1].wlan[0].mac packetDropIncorrectlyReceived:count 36
attr interpolationmode none
attr source packetDropReasonIsIncorrectlyReceived(packetDropped)
attr title "packet drops: incorrectly received, count"
scalar mobilityDrones.drones[1].wlan[0].mac packetDropIncorrectlyReceived:sum(packetBytes) 2674
attr interpolationmode none
attr source packetDropReasonIsIncorrectlyReceived(packetDropped)
attr title "packet drops: incorrectly received, sum(packetBytes)"
scalar mobilityDrones.drones[1].wlan[0].mac packetDropNotAddressedToUs:count 92
attr interpolationmode none
attr source packetDropReasonIsNotAddressedToUs(packetDropped)
attr title "packet drops: not addressed to us, count"
scalar mobilityDrones.drones[1].wlan[0].mac packetDropNotAddressedToUs:sum(packetBytes) 7176
attr interpolationmode none
attr source packetDropReasonIsNotAddressedToUs(packetDropped)
attr title "packet drops: not addressed to us, sum(packetBytes)"
scalar mobilityDrones.drones[1].wlan[0].mac packetDropQueueOverflow:count 0
attr interpolationmode none
attr source packetDropReasonIsQueueOverflow(packetDropped)
attr title "packet drops: queue overflow, count"
scalar mobilityDrones.drones[1].wlan[0].mac packetDropQueueOverflow:sum(packetBytes) 0
attr interpolationmode none
attr source packetDropReasonIsQueueOverflow(packetDropped)
attr title "packet drops: queue overflow, sum(packetBytes)"
scalar mobilityDrones.drones[1].wlan[0].mac packetDropRetryLimitReached:count 60
attr interpolationmode none
attr source packetDropReasonIsRetryLimitReached(packetDropped)
attr title "packet drops: retry limit reached, count"
scalar mobilityDrones.drones[1].wlan[0].mac packetDropRetryLimitReached:sum(packetBytes) 4680
attr interpolationmode none
attr source packetDropReasonIsRetryLimitReached(packetDropped)
attr title "packet drops: retry limit reached, sum(packetBytes)"
scalar mobilityDrones.drones[1].wlan[0].mac packetDropDuplicateDetected:count 3
attr interpolationmode none
attr source packetDropReasonIsDuplicateDetected(packetDropped)
attr title "packet drops: duplicate detected, count"
scalar mobilityDrones.drones[1].wlan[0].mac packetDropDuplicateDetected:sum(packetBytes) 234
attr interpolationmode none
attr source packetDropReasonIsDuplicateDetected(packetDropped)
attr title "packet drops: duplicate detected, sum(packetBytes)"
scalar mobilityDrones.drones[1].wlan[0].mac packetDropOther:count 0
attr interpolationmode none
attr source packetDropReasonIsOther(packetDropped)
attr title "packet drops: other, count"
scalar mobilityDrones.drones[1].wlan[0].mac packetDropOther:sum(packetBytes) 0
attr interpolationmode none
attr source packetDropReasonIsOther(packetDropped)
attr title "packet drops: other, sum(packetBytes)"
scalar mobilityDrones.drones[1].wlan[0].mac linkBroken:count 60
attr interpolationmode none
attr title "link breaks, count"
statistic mobilityDrones.drones[1].wlan[0].radio minSnir:histogram
field count 265
field mean 346245792.41296
field stddev 5636468149.6071
field min 14.510293123479
field max 91755054109.427
field sum 91755134989.435
field sqrsum 8.4189899546278e+021
attr source minimumSnir(packetSentToUpper)
attr title "Min SNIR, histogram"
bin	-inf	0
bin	0	264
bin	2000000000	0
bin	4000000000	0
bin	6000000000	0
bin	8000000000	0
bin	10000000000	0
bin	12000000000	0
bin	14000000000	0
bin	16000000000	0
bin	18000000000	0
bin	20000000000	0
bin	22000000000	0
bin	24000000000	0
bin	26000000000	0
bin	28000000000	0
bin	30000000000	0
bin	32000000000	0
bin	34000000000	0
bin	36000000000	0
bin	38000000000	0
bin	40000000000	0
bin	42000000000	0
bin	44000000000	0
bin	46000000000	0
bin	48000000000	0
bin	50000000000	0
bin	52000000000	0
bin	54000000000	0
bin	56000000000	0
bin	58000000000	0
bin	60000000000	0
bin	62000000000	0
bin	64000000000	0
bin	66000000000	0
bin	68000000000	0
bin	70000000000	0
bin	72000000000	0
bin	74000000000	0
bin	76000000000	0
bin	78000000000	0
bin	80000000000	0
bin	82000000000	0
bin	84000000000	0
bin	86000000000	0
bin	88000000000	0
bin	90000000000	1
bin	92000000000	0
bin	94000000000	0
bin	96000000000	0
bin	98000000000	0
bin	100000000000	0
bin	102000000000	0
bin	104000000000	0
bin	106000000000	0
bin	108000000000	0
bin	110000000000	0
bin	112000000000	0
bin	114000000000	0
bin	116000000000	0
statistic mobilityDrones.drones[1].wlan[0].radio packetErrorRate:histogram
field count 265
field mean 0.1392291832459
field stddev 0.24761832278588
field min 0
field max 0.88658608501463
field sum 36.895733560163
field sqrsum 21.324078966572
attr source packetErrorRate(packetSentToUpper)
attr title "Packet error rate, histogram"
bin	-inf	0
bin	0	159
bin	0.02	8
bin	0.04	19
bin	0.06	4
bin	0.08	1
bin	0.1	1
bin	0.12	1
bin	0.14	4
bin	0.16	2
bin	0.18	1
bin	0.2	0
bin	0.22	9
bin	0.24	3
bin	0.26	5
bin	0.28	4
bin	0.3	4
bin	0.32	0
bin	0.34	4
bin	0.36	0
bin	0.38	1
bin	0.4	0
bin	0.42	0
bin	0.44	0
bin	0.46	1
bin	0.48	1
bin	0.5	0
bin	0.52	0
bin	0.54	1
bin	0.56	0
bin	0.58	0
bin	0.6	2
bin	0.62	2
bin	0.64	0
bin	0.66	3
bin	0.68	2
bin	0.7	2
bin	0.72	4
bin	0.74	5
bin	0.76	5
bin	0.78	0
bin	0.8	0
bin	0.82	0
bin	0.84	4
bin	0.86	2
bin	0.88	1
bin	0.9	0
bin	0.92	0
bin	0.94	0
bin	0.96	0
bin	0.98	0
statistic mobilityDrones.drones[1].wlan[0].radio bitErrorRate:histogram
field count 0
field mean nan
field stddev nan
field min nan
field max nan
field sum 0
field sqrsum 0
attr source bitErrorRate(packetSentToUpper)
attr title "Bit error rate, histogram"
bin	-inf	0
bin	0	0
bin	1	0
statistic mobilityDrones.drones[1].wlan[0].radio symbolErrorRate:histogram
field count 0
field mean nan
field stddev nan
field min nan
field max nan
field sum 0
field sqrsum 0
attr source symbolErrorRate(packetSentToUpper)
attr title "Symbol error rate, histogram"
bin	-inf	0
bin	0	0
bin	1	0
scalar mobilityDrones.drones[1].wlan[0].radio transmissionState:count 3196
attr interpolationmode sample-hold
attr source transmissionStateChanged
attr title "Radio transmission state, count"
scalar mobilityDrones.drones[1].wlan[0].radio receptionState:count 2217
attr interpolationmode sample-hold
attr source receptionStateChanged
attr title "Radio reception state, count"
scalar mobilityDrones.drones[1].wlan[0].radio radioMode:count 1601
attr interpolationmode sample-hold
attr source radioModeChanged
attr title "Radio mode, count"
statistic mobilityDrones.drones[1].wlan[0].radio radioChannel:histogram
field count 1
field mean 0
field stddev nan
field min 0
field max 0
field sum 0
field sqrsum 0
attr interpolationmode sample-hold
attr source radioChannelChanged
attr title "Radio channel, histogram"
bin	-inf	0
bin	-0.5	0
bin	-0.48	0
bin	-0.46	0
bin	-0.44	0
bin	-0.42	0
bin	-0.4	0
bin	-0.38	0
bin	-0.36	0
bin	-0.34	0
bin	-0.32	0
bin	-0.3	0
bin	-0.28	0
bin	-0.26	0
bin	-0.24	0
bin	-0.22	0
bin	-0.2	0
bin	-0.18	0
bin	-0.16	0
bin	-0.14	0
bin	-0.12	0
bin	-0.1	0
bin	-0.08	0
bin	-0.06	0
bin	-0.04	0
bin	-0.02	0
bin	0	1
bin	0.02	0
bin	0.04	0
bin	0.06	0
bin	0.08	0
bin	0.1	0
bin	0.12	0
bin	0.14	0
bin	0.16	0
bin	0.18	0
bin	0.2	0
bin	0.22	0
bin	0.24	0
bin	0.26	0
bin	0.28	0
bin	0.3	0
bin	0.32	0
bin	0.34	0
bin	0.36	0
bin	0.38	0
bin	0.4	0
bin	0.42	0
bin	0.44	0
bin	0.46	0
bin	0.48	0
bin	0.5	0
scalar mobilityDrones.drones[1].ipv4.ip packetDropAddressResolutionFailed:count 0
attr interpolationmode none
attr source packetDropReasonIsAddressResolutionFailed(packetDropped)
attr title "packet drop: address resolution failed, count"
scalar mobilityDrones.drones[1].ipv4.ip packetDropAddressResolutionFailed:sum(packetBytes) 0
attr interpolationmode none
attr source packetDropReasonIsAddressResolutionFailed(packetDropped)
attr title "packet drop: address resolution failed, sum(packetBytes)"
scalar mobilityDrones.drones[1].ipv4.ip packetDropHopLimitReached:count 0
attr interpolationmode none
attr source packetDropReasonIsHopLimitReached(packetDropped)
attr title "packet drop: hop limit reached, count"
scalar mobilityDrones.drones[1].ipv4.ip packetDropHopLimitReached:sum(packetBytes) 0
attr interpolationmode none
attr source packetDropReasonIsHopLimitReached(packetDropped)
attr title "packet drop: hop limit reached, sum(packetBytes)"
scalar mobilityDrones.drones[1].ipv4.ip packetDropForwardingDisabled:count 0
attr interpolationmode none
attr source packetDropReasonIsForwardingDisabled(packetDropped)
attr title "packet drop: forwarding disabled, count"
scalar mobilityDrones.drones[1].ipv4.ip packetDropForwardingDisabled:sum(packetBytes) 0
attr interpolationmode none
attr source packetDropReasonIsForwardingDisabled(packetDropped)
attr title "packet drop: forwarding disabled, sum(packetBytes)"
scalar mobilityDrones.drones[1].ipv4.ip packetDropNoInterfaceFound:count 0
attr interpolationmode none
attr source packetDropReasonIsNoInterfaceFound(packetDropped)
attr title "packet drop: no interface found, count"
scalar mobilityDrones.drones[1].ipv4.ip packetDropNoInterfaceFound:sum(packetBytes) 0
attr interpolationmode none
attr source packetDropReasonIsNoInterfaceFound(packetDropped)
attr title "packet drop: no interface found, sum(packetBytes)"
scalar mobilityDrones.drones[1].ipv4.ip packetDropNoRouteFound:count 0
attr interpolationmode none
attr source packetDropReasonIsNoRouteFound(packetDropped)
attr title "packet drop: no route found, count"
scalar mobilityDrones.drones[1].ipv4.ip packetDropNoRouteFound:sum(packetBytes) 0
attr interpolationmode none
attr source packetDropReasonIsNoRouteFound(packetDropped)
attr title "packet drop: no route found, sum(packetBytes)"
scalar mobilityDrones.drones[1].ipv4.ip packetDropUndefined:count 0
attr interpolationmode none
attr source packetDropReasonIsUndefined(packetDropped)
attr title "packet drop: undefined, count"
scalar mobilityDrones.drones[1].ipv4.ip packetDropUndefined:sum(packetBytes) 0
attr interpolationmode none
attr source packetDropReasonIsUndefined(packetDropped)
attr title "packet drop: undefined, sum(packetBytes)"
scalar mobilityDrones.drones[1].ipv4.arp arpReplySent:count 3
attr source arpReplySent
attr title "ARP replies sent, count"
scalar mobilityDrones.drones[1].ipv4.arp arpReplySent:sum(packetBytes) 84
attr source arpReplySent
attr title "ARP replies sent, sum(packetBytes)"
scalar mobilityDrones.drones[1].ipv4.arp arpRequestSent:count 2
attr source arpRequestSent
attr title "ARP request sent, count"
scalar mobilityDrones.drones[1].ipv4.arp arpRequestSent:sum(packetBytes) 56
attr source arpRequestSent
attr title "ARP request sent, sum(packetBytes)"
scalar mobilityDrones.drones[1].ipv4.arp arpResolutionFailed:count 0
attr title "ARP failed resolutions, count"
scalar mobilityDrones.drones[1].ipv4.arp arpResolutionCompleted:count 17
attr title "ARP completed resolutions, count"
scalar mobilityDrones.drones[1].ipv4.arp arpResolutionInitiated:count 2
attr title "ARP initiated resolutions, count"
scalar mobilityDrones.drones[1].udp packetReceived:count 329
attr interpolationmode none
attr source packetReceived
attr title "packets received, count"
scalar mobilityDrones.drones[1].udp packetReceived:sum(packetBytes) 7238
attr interpolationmode none
attr source packetReceived
attr title "packets received, sum(packetBytes)"
scalar mobilityDrones.drones[1].udp packetSent:count 380
attr interpolationmode none
attr source packetSent
attr title "packets sent, count"
scalar mobilityDrones.drones[1].udp packetSent:sum(packetBytes) 8360
attr interpolationmode none
attr source packetSent
attr title "packets sent, sum(packetBytes)"
scalar mobilityDrones.drones[1].udp passedUpPk:count 329
attr interpolationmode none
attr source packetSentToUpper
attr title "packets passed up, count"
scalar mobilityDrones.drones[1].udp droppedPkWrongPort:count 0
attr interpolationmode none
attr source packetDropReasonIsNoPortFound(packetDropped)
attr title "packets dropped (wrong port), count"
scalar mobilityDrones.drones[1].udp droppedPkBadChecksum:count 0
attr interpolationmode none
attr source packetDropReasonIsIncorrectlyReceived(packetDropped)
attr title "packets dropped (checksum error), count"
scalar mobilityDrones.drones[1].app[0] "packets sent" 380
scalar mobilityDrones.drones[1].app[0] "packets received" 0
scalar mobilityDrones.drones[1].app[0] packetReceived:count 45
attr interpolationmode none
attr source packetReceived
attr title "packets received, count"
scalar mobilityDrones.drones[1].app[0] packetReceived:sum(packetBytes) 630
attr interpolationmode none
attr source packetReceived
attr title "packets received, sum(packetBytes)"
statistic mobilityDrones.drones[1].app[0] rcvdPkLifetime:stats
field count 45
field mean 0.049616478165311
field stddev 0.30256306070127
field min 5.4221855e-005
field max 2.033219204103
field sum 2.232741517439
field sqrsum 4.1387346215892
attr interpolationmode none
attr source dataAge(packetReceived)
attr title "received packet lifetime, stats"
attr unit s
scalar mobilityDrones.drones[1].app[0] packetSent:count 380
attr interpolationmode none
attr source packetSent
attr title "packets sent, count"
scalar mobilityDrones.drones[1].app[0] packetSent:sum(packetBytes) 5320
attr interpolationmode none
attr source packetSent
attr title "packets sent, sum(packetBytes)"
scalar mobilityDrones.drones[2].lo[0].lo rcvdPkFromHl:count 247
attr interpolationmode none
attr source packetReceivedFromUpper
attr title "packets received from higher layer, count"
scalar mobilityDrones.drones[2].lo[0].lo rcvdPkFromHl:sum(packetBytes) 10374
attr interpolationmode none
attr source packetReceivedFromUpper
attr title "packets received from higher layer, sum(packetBytes)"
scalar mobilityDrones.drones[2].lo[0].lo passedUpPk:count 247
attr interpolationmode none
attr source packetSentToUpper
attr title "packets passed to higher layer, count"
scalar mobilityDrones.drones[2].lo[0].lo passedUpPk:sum(packetBytes) 10374
attr interpolationmode none
attr source packetSentToUpper
attr title "packets passed to higher layer, sum(packetBytes)"
scalar mobilityDrones.drones[2].wlan[0].mac.dcf.channelAccess.pendingQueue packetPopped:count 341
attr interpolationmode none
attr title "packet popped, count"
scalar mobilityDrones.drones[2].wlan[0].mac.dcf.channelAccess.pendingQueue packetPopped:sum(packetBytes) 26542
attr interpolationmode none
attr title "packet popped, sum(packetBytes)"
statistic mobilityDrones.drones[2].wlan[0].mac.dcf.channelAccess.pendingQueue queueingTime:histogram
field count 341
field mean 0.00051890322580645
field stddev 0.0026035334100176
field min 0
field max 0.02021
field sum 0.176946
field sqrsum 0.002396469164
attr interpolationmode none
attr source queueingTime(packetPopped)
attr title "queueing times, histogram"
attr unit s
bin	-inf	0
bin	-0.5	0
bin	-0.48	0
bin	-0.46	0
bin	-0.44	0
bin	-0.42	0
bin	-0.4	0
bin	-0.38	0
bin	-0.36	0
bin	-0.34	0
bin	-0.32	0
bin	-0.3	0
bin	-0.28	0
bin	-0.26	0
bin	-0.24	0
bin	-0.22	0
bin	-0.2	0
bin	-0.18	0
bin	-0.16	0
bin	-0.14	0
bin	-0.12	0
bin	-0.1	0
bin	-0.08	0
bin	-0.06	0
bin	-0.04	0
bin	-0.02	0
bin	0	340
bin	0.02	1
bin	0.04	0
bin	0.06	0
bin	0.08	0
bin	0.1	0
bin	0.12	0
bin	0.14	0
bin	0.16	0
bin	0.18	0
bin	0.2	0
bin	0.22	0
bin	0.24	0
bin	0.26	0
bin	0.28	0
bin	0.3	0
bin	0.32	0
bin	0.34	0
bin	0.36	0
bin	0.38	0
bin	0.4	0
bin	0.42	0
bin	0.44	0
bin	0.46	0
bin	0.48	0
bin	0.5	0
scalar mobilityDrones.drones[2].wlan[0].mac.dcf.channelAccess.pendingQueue queueLength:max 1
attr interpolationmode sample-hold
attr source "count(packetPushed) - count(packetPopped) - count(packetRemoved) - count(packetDropped)"
attr title "queue length, max"
scalar mobilityDrones.drones[2].wlan[0].mac.dcf.channelAccess.pendingQueue queueLength:timeavg 0.00054993827846746
attr interpolationmode sample-hold
attr source "count(packetPushed) - count(packetPopped) - count(packetRemoved) - count(packetDropped)"
attr title "queue length, timeavg"
scalar mobilityDrones.drones[2].wlan[0].mac.dcf.channelAccess.pendingQueue packetPushed:count 341
attr interpolationmode none
attr title "packet pushed, count"
scalar mobilityDrones.drones[2].wlan[0].mac.dcf.channelAccess.pendingQueue packetPushed:sum(packetBytes) 26542
attr interpolationmode none
attr title "packet pushed, sum(packetBytes)"
scalar mobilityDrones.drones[2].wlan[0].mac.dcf.channelAccess.pendingQueue packetDropQueueOverflow:count 0
attr interpolationmode none
attr source packetDropReasonIsQueueOverflow(packetDropped)
attr title "packet drops: queue overflow, count"
scalar mobilityDrones.drones[2].wlan[0].mac.dcf.channelAccess.pendingQueue packetDropQueueOverflow:sum(packetBytes) 0
attr interpolationmode none
attr source packetDropReasonIsQueueOverflow(packetDropped)
attr title "packet drops: queue overflow, sum(packetBytes)"
scalar mobilityDrones.drones[2].wlan[0].mac.dcf.channelAccess.pendingQueue packetRemoved:count 0
attr interpolationmode none
attr title "packets removed, count"
scalar mobilityDrones.drones[2].wlan[0].mac.dcf.channelAccess.pendingQueue packetRemoved:sum(packetBytes) 0
attr interpolationmode none
attr title "packets removed, sum(packetBytes)"
statistic mobilityDrones.drones[2].wlan[0].mac.dcf.channelAccess.inProgressFrames queueingTime:histogram
field count 341
field mean 0.0075675870054164
field stddev 0.019269619715344
field min 5e-005
field max 0.104717
field sum 2.580547168847
field sqrsum 0.14577671817299
attr interpolationmode none
attr source queueingTime(packetDequeued)
attr title "queueing times, histogram"
bin	-inf	0
bin	0	287
bin	0.01	5
bin	0.02	8
bin	0.03	13
bin	0.04	6
bin	0.05	5
bin	0.06	7
bin	0.07	5
bin	0.08	4
bin	0.09	0
bin	0.1	1
bin	0.11	0
bin	0.12	0
bin	0.13	0
bin	0.14	0
bin	0.15	0
bin	0.16	0
bin	0.17	0
bin	0.18	0
bin	0.19	0
bin	0.2	0
bin	0.21	0
bin	0.22	0
bin	0.23	0
bin	0.24	0
bin	0.25	0
bin	0.26	0
bin	0.27	0
bin	0.28	0
bin	0.29	0
bin	0.3	0
bin	0.31	0
bin	0.32	0
bin	0.33	0
bin	0.34	0
bin	0.35	0
bin	0.36	0
bin	0.37	0
bin	0.38	0
bin	0.39	0
bin	0.4	0
bin	0.41	0
bin	0.42	0
bin	0.43	0
bin	0.44	0
bin	0.45	0
bin	0.46	0
bin	0.47	0
bin	0.48	0
bin	0.49	0
bin	0.5	0
bin	0.51	0
scalar mobilityDrones.drones[2].wlan[0].mac.dcf.channelAccess.inProgressFrames queueLength:max 1
attr interpolationmode sample-hold
attr source "count(packetEnqueued) - count(packetDequeued)"
attr title "queue length, max"
scalar mobilityDrones.drones[2].wlan[0].mac.dcf.channelAccess.inProgressFrames queueLength:timeavg 0.0080201963736948
attr interpolationmode sample-hold
attr source "count(packetEnqueued) - count(packetDequeued)"
attr title "queue length, timeavg"
scalar mobilityDrones.drones[2].wlan[0].mac.dcf.channelAccess.contention stateChanged:count 5990
attr interpolationmode none
attr title "contention state changed, count"
scalar mobilityDrones.drones[2].wlan[0].mac.dcf.channelAccess.contention channelAccessGranted:count 664
attr title "channel access granted, count"
scalar mobilityDrones.drones[2].wlan[0].mac.dcf.channelAccess channelOwnershipChanged:count 1328
attr interpolationmode sample-hold
attr title "channel ownership, count"
scalar mobilityDrones.drones[2].wlan[0].mac.dcf.originatorMacDataService packetAggregated:count 0
attr title "packets aggregated, count"
scalar mobilityDrones.drones[2].wlan[0].mac.dcf.originatorMacDataService packetFragmented:count 0
attr title "packets fragmented, count"
scalar mobilityDrones.drones[2].wlan[0].mac.dcf.recipientMacDataService packetDropDuplicateDetected:count 0
attr interpolationmode none
attr source packetDropReasonIsDuplicateDetected(packetDropped)
attr title "packet drops: duplicate detected, count"
scalar mobilityDrones.drones[2].wlan[0].mac.dcf.recipientMacDataService packetDropDuplicateDetected:sum(packetBytes) 0
attr interpolationmode none
attr source packetDropReasonIsDuplicateDetected(packetDropped)
attr title "packet drops: duplicate detected, sum(packetBytes)"
scalar mobilityDrones.drones[2].wlan[0].mac.dcf.recipientMacDataService packetDeaggregated:count 0
attr title "packets deaggregated, count"
scalar mobilityDrones.drones[2].wlan[0].mac.dcf.recipientMacDataService packetDefragmented:count 89
attr title "packets defragmented, count"
scalar mobilityDrones.drones[2].wlan[0].mac.dcf.recoveryProcedure retryLimitReached:count 52
attr title "retry limit reached, count"
scalar mobilityDrones.drones[2].wlan[0].mac.dcf packetReceivedFromPeer:count 128
attr interpolationmode none
attr title "packets received, count"
scalar mobilityDrones.drones[2].wlan[0].mac.dcf packetReceivedFromPeer:sum(packetBytes) 7432
attr interpolationmode none
attr title "packets received, sum(packetBytes)"
scalar mobilityDrones.drones[2].wlan[0].mac.dcf packetReceivedFromPeerUnicast:count 77
attr interpolationmode none
attr source ieee80211Unicast(packetReceivedFromPeer)
attr title "packets received: unicast, count"
scalar mobilityDrones.drones[2].wlan[0].mac.dcf packetReceivedFromPeerUnicast:sum(packetBytes) 3468
attr interpolationmode none
attr source ieee80211Unicast(packetReceivedFromPeer)
attr title "packets received: unicast, sum(packetBytes)"
scalar mobilityDrones.drones[2].wlan[0].mac.dcf packetReceivedFromPeerMulticast:count 51
attr interpolationmode none
attr source ieee80211Multicast(packetReceivedFromPeer)
attr title "packets received: multicast, count"
scalar mobilityDrones.drones[2].wlan[0].mac.dcf packetReceivedFromPeerMulticast:sum(packetBytes) 3964
attr interpolationmode none
attr source ieee80211Multicast(packetReceivedFromPeer)
attr title "packets received: multicast, sum(packetBytes)"
scalar mobilityDrones.drones[2].wlan[0].mac.dcf packetReceivedFromPeerBroadcast:count 1
attr interpolationmode none
attr source ieee80211Broadcast(packetReceivedFromPeer)
attr title "packets received: broadcast, count"
scalar mobilityDrones.drones[2].wlan[0].mac.dcf packetReceivedFromPeerBroadcast:sum(packetBytes) 64
attr interpolationmode none
attr source ieee80211Broadcast(packetReceivedFromPeer)
attr title "packets received: broadcast, sum(packetBytes)"
scalar mobilityDrones.drones[2].wlan[0].mac.dcf packetReceivedFromPeerWithRetry:count 4
attr interpolationmode none
attr source ieee80211Retry(packetReceivedFromPeer)
attr title "packets received: with retry, count"
scalar mobilityDrones.drones[2].wlan[0].mac.dcf packetReceivedFromPeerWithRetry:sum(packetBytes) 312
attr interpolationmode none
attr source ieee80211Retry(packetReceivedFromPeer)
attr title "packets received: with retry, sum(packetBytes)"
scalar mobilityDrones.drones[2].wlan[0].mac.dcf packetReceivedFromPeerWithoutRetry:count 124
attr interpolationmode none
attr source ieee80211NotRetry(packetReceivedFromPeer)
attr title "packets received: without retry, count"
scalar mobilityDrones.drones[2].wlan[0].mac.dcf packetReceivedFromPeerWithoutRetry:sum(packetBytes) 7120
attr interpolationmode none
attr source ieee80211NotRetry(packetReceivedFromPeer)
attr title "packets received: without retry, sum(packetBytes)"
scalar mobilityDrones.drones[2].wlan[0].mac.dcf packetSentToPeer:count 702
attr interpolationmode none
attr title "packets sent, count"
scalar mobilityDrones.drones[2].wlan[0].mac.dcf packetSentToPeer:sum(packetBytes) 52268
attr interpolationmode none
attr title "packets sent, sum(packetBytes)"
scalar mobilityDrones.drones[2].wlan[0].mac.dcf packetSentToPeerUnicast:count 452
attr interpolationmode none
attr source ieee80211Unicast(packetSentToPeer)
attr title "packets sent: unicast, count"
scalar mobilityDrones.drones[2].wlan[0].mac.dcf packetSentToPeerUnicast:sum(packetBytes) 32810
attr interpolationmode none
attr source ieee80211Unicast(packetSentToPeer)
attr title "packets sent: unicast, sum(packetBytes)"
scalar mobilityDrones.drones[2].wlan[0].mac.dcf packetSentToPeerMulticast:count 250
attr interpolationmode none
attr source ieee80211Multicast(packetSentToPeer)
attr title "packets sent: multicast, count"
scalar mobilityDrones.drones[2].wlan[0].mac.dcf packetSentToPeerMulticast:sum(packetBytes) 19458
attr interpolationmode none
attr source ieee80211Multicast(packetSentToPeer)
attr title "packets sent: multicast, sum(packetBytes)"
scalar mobilityDrones.drones[2].wlan[0].mac.dcf packetSentToPeerBroadcast:count 3
attr interpolationmode none
attr source ieee80211Broadcast(packetSentToPeer)
attr title "packets sent: broadcast , count"
scalar mobilityDrones.drones[2].wlan[0].mac.dcf packetSentToPeerBroadcast:sum(packetBytes) 192
attr interpolationmode none
attr source ieee80211Broadcast(packetSentToPeer)
attr title "packets sent: broadcast , sum(packetBytes)"
scalar mobilityDrones.drones[2].wlan[0].mac.dcf packetSentToPeerWithRetry:count 323
attr interpolationmode none
attr source ieee80211Retry(packetSentToPeer)
attr title "packets sent: with retry, count"
scalar mobilityDrones.drones[2].wlan[0].mac.dcf packetSentToPeerWithRetry:sum(packetBytes) 25194
attr interpolationmode none
attr source ieee80211Retry(packetSentToPeer)
attr title "packets sent: with retry, sum(packetBytes)"
scalar mobilityDrones.drones[2].wlan[0].mac.dcf packetSentToPeerWithoutRetry:count 379
attr interpolationmode none
attr source ieee80211NotRetry(packetSentToPeer)
attr title "packets sent: without retry, count"
scalar mobilityDrones.drones[2].wlan[0].mac.dcf packetSentToPeerWithoutRetry:sum(packetBytes) 27074
attr interpolationmode none
attr source ieee80211NotRetry(packetSentToPeer)
attr title "packets sent: without retry, sum(packetBytes)"
scalar mobilityDrones.drones[2].wlan[0].mac.dcf packetDrop:count 52
attr interpolationmode none
attr source packetDropped
attr title "packet drops, count"
scalar mobilityDrones.drones[2].wlan[0].mac.dcf packetDrop:sum(packetBytes) 4056
attr interpolationmode none
attr source packetDropped
attr title "packet drops, sum(packetBytes)"
scalar mobilityDrones.drones[2].wlan[0].mac.dcf packetDropNotAddressedToUs:count 0
attr interpolationmode none
attr source packetDropReasonIsNotAddressedToUs(packetDropped)
attr title "packet drops: not addressed to us, count"
scalar mobilityDrones.drones[2].wlan[0].mac.dcf packetDropNotAddressedToUs:sum(packetBytes) 0
attr interpolationmode none
attr source packetDropReasonIsNotAddressedToUs(packetDropped)
attr title "packet drops: not addressed to us, sum(packetBytes)"
scalar mobilityDrones.drones[2].wlan[0].mac.dcf packetDropQueueOverflow:count 0
attr interpolationmode none
attr source packetDropReasonIsQueueOverflow(packetDropped)
attr title "packet drops: queue overflow, count"
scalar mobilityDrones.drones[2].wlan[0].mac.dcf packetDropQueueOverflow:sum(packetBytes) 0
attr interpolationmode none
attr source packetDropReasonIsQueueOverflow(packetDropped)
attr title "packet drops: queue overflow, sum(packetBytes)"
scalar mobilityDrones.drones[2].wlan[0].mac.dcf packetDropRetryLimitReached:count 52
attr interpolationmode none
attr source packetDropReasonIsRetryLimitReached(packetDropped)
attr title "packet drops: retry limit reached, count"
scalar mobilityDrones.drones[2].wlan[0].mac.dcf packetDropRetryLimitReached:sum(packetBytes) 4056
attr interpolationmode none
attr source packetDropReasonIsRetryLimitReached(packetDropped)
attr title "packet drops: retry limit reached, sum(packetBytes)"
scalar mobilityDrones.drones[2].wlan[0].mac.dcf linkBroken:count 52
attr interpolationmode none
attr title "link breaks, count"
scalar mobilityDrones.drones[2].wlan[0].mac.dcf frameSequenceFinished:count 664
[...]
scalar mobilityDrones.sensor1.wlan[0].mac.dcf packetSentToPeer:count 489
attr interpolationmode none
attr title "packets sent, count"
scalar mobilityDrones.sensor1.wlan[0].mac.dcf packetSentToPeer:sum(packetBytes) 34030
attr interpolationmode none
attr title "packets sent, sum(packetBytes)"
scalar mobilityDrones.sensor1.wlan[0].mac.dcf packetSentToPeerUnicast:count 209
attr interpolationmode none
attr source ieee80211Unicast(packetSentToPeer)
attr title "packets sent: unicast, count"
scalar mobilityDrones.sensor1.wlan[0].mac.dcf packetSentToPeerUnicast:sum(packetBytes) 16110
attr interpolationmode none
attr source ieee80211Unicast(packetSentToPeer)
attr title "packets sent: unicast, sum(packetBytes)"
scalar mobilityDrones.sensor1.wlan[0].mac.dcf packetSentToPeerMulticast:count 280
attr interpolationmode none
attr source ieee80211Multicast(packetSentToPeer)
attr title "packets sent: multicast, count"
scalar mobilityDrones.sensor1.wlan[0].mac.dcf packetSentToPeerMulticast:sum(packetBytes) 17920
attr interpolationmode none
attr source ieee80211Multicast(packetSentToPeer)
attr title "packets sent: multicast, sum(packetBytes)"
scalar mobilityDrones.sensor1.wlan[0].mac.dcf packetSentToPeerBroadcast:count 280
attr interpolationmode none
attr source ieee80211Broadcast(packetSentToPeer)
attr title "packets sent: broadcast , count"
scalar mobilityDrones.sensor1.wlan[0].mac.dcf packetSentToPeerBroadcast:sum(packetBytes) 17920
attr interpolationmode none
attr source ieee80211Broadcast(packetSentToPeer)
attr title "packets sent: broadcast , sum(packetBytes)"
scalar mobilityDrones.sensor1.wlan[0].mac.dcf packetSentToPeerWithRetry:count 164
attr interpolationmode none
attr source ieee80211Retry(packetSentToPeer)
attr title "packets sent: with retry, count"
scalar mobilityDrones.sensor1.wlan[0].mac.dcf packetSentToPeerWithRetry:sum(packetBytes) 12792
attr interpolationmode none
attr source ieee80211Retry(packetSentToPeer)
attr title "packets sent: with retry, sum(packetBytes)"
scalar mobilityDrones.sensor1.wlan[0].mac.dcf packetSentToPeerWithoutRetry:count 325
attr interpolationmode none
attr source ieee80211NotRetry(packetSentToPeer)
attr title "packets sent: without retry, count"
scalar mobilityDrones.sensor1.wlan[0].mac.dcf packetSentToPeerWithoutRetry:sum(packetBytes) 21238
attr interpolationmode none
attr source ieee80211NotRetry(packetSentToPeer)
attr title "packets sent: without retry, sum(packetBytes)"
scalar mobilityDrones.sensor1.wlan[0].mac.dcf packetDrop:count 219
attr interpolationmode none
attr source packetDropped
attr title "packet drops, count"
scalar mobilityDrones.sensor1.wlan[0].mac.dcf packetDrop:sum(packetBytes) 15838
attr interpolationmode none
attr source packetDropped
attr title "packet drops, sum(packetBytes)"
scalar mobilityDrones.sensor1.wlan[0].mac.dcf packetDropNotAddressedToUs:count 192
attr interpolationmode none
attr source packetDropReasonIsNotAddressedToUs(packetDropped)
attr title "packet drops: not addressed to us, count"
scalar mobilityDrones.sensor1.wlan[0].mac.dcf packetDropNotAddressedToUs:sum(packetBytes) 13732
attr interpolationmode none
attr source packetDropReasonIsNotAddressedToUs(packetDropped)
attr title "packet drops: not addressed to us, sum(packetBytes)"
scalar mobilityDrones.sensor1.wlan[0].mac.dcf packetDropQueueOverflow:count 0
attr interpolationmode none
attr source packetDropReasonIsQueueOverflow(packetDropped)
attr title "packet drops: queue overflow, count"
scalar mobilityDrones.sensor1.wlan[0].mac.dcf packetDropQueueOverflow:sum(packetBytes) 0
attr interpolationmode none
attr source packetDropReasonIsQueueOverflow(packetDropped)
attr title "packet drops: queue overflow, sum(packetBytes)"
scalar mobilityDrones.sensor1.wlan[0].mac.dcf packetDropRetryLimitReached:count 27
attr interpolationmode none
attr source packetDropReasonIsRetryLimitReached(packetDropped)
attr title "packet drops: retry limit reached, count"
scalar mobilityDrones.sensor1.wlan[0].mac.dcf packetDropRetryLimitReached:sum(packetBytes) 2106
attr interpolationmode none
attr source packetDropReasonIsRetryLimitReached(packetDropped)
attr title "packet drops: retry limit reached, sum(packetBytes)"
scalar mobilityDrones.sensor1.wlan[0].mac.dcf linkBroken:count 27
attr interpolationmode none
attr title "link breaks, count"
scalar mobilityDrones.sensor1.wlan[0].mac.dcf frameSequenceFinished:count 486
attr title "finished frame sequences, count"
statistic mobilityDrones.sensor1.wlan[0].mac.dcf frameSequenceDuration:histogram
field count 486
field mean 7.4687370051441e-005
field stddev 2.8865350458187e-005
field min 5e-005
field max 0.000109
field sum 0.036298061845
field sqrsum 3.1151128788485e-006
attr source frameSequenceDuration(frameSequenceFinished)
attr title "frame sequence durations, histogram"
bin	-inf	0
bin	0	486
bin	0.01	0
bin	0.02	0
bin	0.03	0
bin	0.04	0
bin	0.05	0
bin	0.06	0
bin	0.07	0
bin	0.08	0
bin	0.09	0
bin	0.1	0
bin	0.11	0
bin	0.12	0
bin	0.13	0
bin	0.14	0
bin	0.15	0
bin	0.16	0
bin	0.17	0
bin	0.18	0
bin	0.19	0
bin	0.2	0
bin	0.21	0
bin	0.22	0
bin	0.23	0
bin	0.24	0
bin	0.25	0
bin	0.26	0
bin	0.27	0
bin	0.28	0
bin	0.29	0
bin	0.3	0
bin	0.31	0
bin	0.32	0
bin	0.33	0
bin	0.34	0
bin	0.35	0
bin	0.36	0
bin	0.37	0
bin	0.38	0
bin	0.39	0
bin	0.4	0
bin	0.41	0
bin	0.42	0
bin	0.43	0
bin	0.44	0
bin	0.45	0
bin	0.46	0
bin	0.47	0
bin	0.48	0
bin	0.49	0
bin	0.5	0
bin	0.51	0
statistic mobilityDrones.sensor1.wlan[0].mac.dcf frameSequenceNumPackets:histogram
field count 486
field mean 1.4238683127572
field stddev 0.49467916827974
field min 1
field max 2
field sum 692
field sqrsum 1104
attr source frameSequenceNumPackets(frameSequenceFinished)
attr title "frame sequences: number of packets, histogram"
bin	-inf	0
bin	0	0
bin	1	280
bin	2	206
bin	3	0
scalar mobilityDrones.sensor1.wlan[0].mac packetReceivedFromLower:count 389
attr interpolationmode none
attr title "packets received from lower layer, count"
scalar mobilityDrones.sensor1.wlan[0].mac packetReceivedFromLower:sum(packetBytes) 28054
attr interpolationmode none
attr title "packets received from lower layer, sum(packetBytes)"
scalar mobilityDrones.sensor1.wlan[0].mac packetSentToLower:count 489
attr interpolationmode none
attr title "packets sent to lower layer, count"
scalar mobilityDrones.sensor1.wlan[0].mac packetSentToLower:sum(packetBytes) 34030
attr interpolationmode none
attr title "packets sent to lower layer, sum(packetBytes)"
scalar mobilityDrones.sensor1.wlan[0].mac packetReceivedFromUpper:count 322
attr interpolationmode none
attr title "packets received from upper layer, count"
scalar mobilityDrones.sensor1.wlan[0].mac packetReceivedFromUpper:sum(packetBytes) 12180
attr interpolationmode none
attr title "packets received from upper layer, sum(packetBytes)"
scalar mobilityDrones.sensor1.wlan[0].mac packetSentToUpper:count 157
attr interpolationmode none
attr title "packets sent to upper layer, count"
scalar mobilityDrones.sensor1.wlan[0].mac packetSentToUpper:sum(packetBytes) 7780
attr interpolationmode none
attr title "packets sent to upper layer, sum(packetBytes)"
scalar mobilityDrones.sensor1.wlan[0].mac packetDrop:count 244
attr interpolationmode none
attr source packetDropped
attr title "packet drops, count"
scalar mobilityDrones.sensor1.wlan[0].mac packetDrop:sum(packetBytes) 17774
attr interpolationmode none
attr source packetDropped
attr title "packet drops, sum(packetBytes)"
scalar mobilityDrones.sensor1.wlan[0].mac packetDropIncorrectlyReceived:count 25
attr interpolationmode none
attr source packetDropReasonIsIncorrectlyReceived(packetDropped)
attr title "packet drops: incorrectly received, count"
scalar mobilityDrones.sensor1.wlan[0].mac packetDropIncorrectlyReceived:sum(packetBytes) 1936
attr interpolationmode none
attr source packetDropReasonIsIncorrectlyReceived(packetDropped)
attr title "packet drops: incorrectly received, sum(packetBytes)"
scalar mobilityDrones.sensor1.wlan[0].mac packetDropNotAddressedToUs:count 192
attr interpolationmode none
attr source packetDropReasonIsNotAddressedToUs(packetDropped)
attr title "packet drops: not addressed to us, count"
scalar mobilityDrones.sensor1.wlan[0].mac packetDropNotAddressedToUs:sum(packetBytes) 13732
attr interpolationmode none
attr source packetDropReasonIsNotAddressedToUs(packetDropped)
attr title "packet drops: not addressed to us, sum(packetBytes)"
scalar mobilityDrones.sensor1.wlan[0].mac packetDropQueueOverflow:count 0
attr interpolationmode none
attr source packetDropReasonIsQueueOverflow(packetDropped)
attr title "packet drops: queue overflow, count"
scalar mobilityDrones.sensor1.wlan[0].mac packetDropQueueOverflow:sum(packetBytes) 0
attr interpolationmode none
attr source packetDropReasonIsQueueOverflow(packetDropped)
attr title "packet drops: queue overflow, sum(packetBytes)"
scalar mobilityDrones.sensor1.wlan[0].mac packetDropRetryLimitReached:count 27
attr interpolationmode none
attr source packetDropReasonIsRetryLimitReached(packetDropped)
attr title "packet drops: retry limit reached, count"
scalar mobilityDrones.sensor1.wlan[0].mac packetDropRetryLimitReached:sum(packetBytes) 2106
attr interpolationmode none
attr source packetDropReasonIsRetryLimitReached(packetDropped)
attr title "packet drops: retry limit reached, sum(packetBytes)"
scalar mobilityDrones.sensor1.wlan[0].mac packetDropDuplicateDetected:count 0
attr interpolationmode none
attr source packetDropReasonIsDuplicateDetected(packetDropped)
attr title "packet drops: duplicate detected, count"
scalar mobilityDrones.sensor1.wlan[0].mac packetDropDuplicateDetected:sum(packetBytes) 0
attr interpolationmode none
attr source packetDropReasonIsDuplicateDetected(packetDropped)
attr title "packet drops: duplicate detected, sum(packetBytes)"
scalar mobilityDrones.sensor1.wlan[0].mac packetDropOther:count 0
attr interpolationmode none
attr source packetDropReasonIsOther(packetDropped)
attr title "packet drops: other, count"
scalar mobilityDrones.sensor1.wlan[0].mac packetDropOther:sum(packetBytes) 0
attr interpolationmode none
attr source packetDropReasonIsOther(packetDropped)
attr title "packet drops: other, sum(packetBytes)"
scalar mobilityDrones.sensor1.wlan[0].mac linkBroken:count 27
attr interpolationmode none
attr title "link breaks, count"
statistic mobilityDrones.sensor1.wlan[0].radio minSnir:histogram
field count 389
field mean 63.711169130252
field stddev 40.935736953256
field min 14.628265603016
field max 127.08034474231
field sum 24783.644791668
field sqrsum 2229179.9942297
attr source minimumSnir(packetSentToUpper)
attr title "Min SNIR, histogram"
bin	-inf	0
bin	0	0
bin	2	0
bin	4	0
bin	6	0
bin	8	0
bin	10	0
bin	12	0
bin	14	9
bin	16	50
bin	18	10
bin	20	22
bin	22	23
bin	24	10
bin	26	5
bin	28	4
bin	30	16
bin	32	6
bin	34	4
bin	36	2
bin	38	1
bin	40	10
bin	42	4
bin	44	5
bin	46	4
bin	48	0
bin	50	0
bin	52	3
bin	54	12
bin	56	1
bin	58	4
bin	60	2
bin	62	3
bin	64	0
bin	66	1
bin	68	2
bin	70	3
bin	72	2
bin	74	14
bin	76	4
bin	78	1
bin	80	0
bin	82	8
bin	84	3
bin	86	6
bin	88	2
bin	90	2
bin	92	0
bin	94	1
bin	96	0
bin	98	7
bin	100	3
bin	102	2
bin	104	17
bin	106	4
bin	108	0
bin	110	8
bin	112	15
bin	114	7
bin	116	22
bin	118	19
bin	120	6
bin	122	7
bin	124	5
bin	126	8
bin	128	0
bin	130	0
bin	132	0
bin	134	0
bin	136	0
bin	138	0
bin	140	0
bin	142	0
bin	144	0
bin	146	0
bin	148	0
statistic mobilityDrones.sensor1.wlan[0].radio packetErrorRate:histogram
field count 389
field mean 0.048700595750561
field stddev 0.13142095612112
field min 0
field max 0.85671972980698
field sum 18.944531746968
field sqrsum 7.6239394529155
attr source packetErrorRate(packetSentToUpper)
attr title "Packet error rate, histogram"
bin	-inf	0
bin	0	319
bin	0.02	7
bin	0.04	4
bin	0.06	1
bin	0.08	1
bin	0.1	5
bin	0.12	8
bin	0.14	4
bin	0.16	1
bin	0.18	2
bin	0.2	3
bin	0.22	1
bin	0.24	0
bin	0.26	0
bin	0.28	3
bin	0.3	3
bin	0.32	2
bin	0.34	1
bin	0.36	7
bin	0.38	2
bin	0.4	5
bin	0.42	2
bin	0.44	0
bin	0.46	0
bin	0.48	0
bin	0.5	0
bin	0.52	1
bin	0.54	1
bin	0.56	0
bin	0.58	0
bin	0.6	1
bin	0.62	1
bin	0.64	0
bin	0.66	0
bin	0.68	1
bin	0.7	1
bin	0.72	0
bin	0.74	0
bin	0.76	0
bin	0.78	1
bin	0.8	0
bin	0.82	0
bin	0.84	1
bin	0.86	0
bin	0.88	0
bin	0.9	0
bin	0.92	0
bin	0.94	0
bin	0.96	0
bin	0.98	0
bin	1	0
bin	1.02	0
bin	1.04	0
bin	1.06	0
bin	1.08	0
statistic mobilityDrones.sensor1.wlan[0].radio bitErrorRate:histogram
field count 0
field mean nan
field stddev nan
field min nan
field max nan
field sum 0
field sqrsum 0
attr source bitErrorRate(packetSentToUpper)
attr title "Bit error rate, histogram"
bin	-inf	0
bin	0	0
bin	1	0
statistic mobilityDrones.sensor1.wlan[0].radio symbolErrorRate:histogram
field count 0
field mean nan
field stddev nan
field min nan
field max nan
field sum 0
field sqrsum 0
attr source symbolErrorRate(packetSentToUpper)
attr title "Symbol error rate, histogram"
bin	-inf	0
bin	0	0
bin	1	0
scalar mobilityDrones.sensor1.wlan[0].radio transmissionState:count 1956
attr interpolationmode sample-hold
attr source transmissionStateChanged
attr title "Radio transmission state, count"
scalar mobilityDrones.sensor1.wlan[0].radio receptionState:count 1815
attr interpolationmode sample-hold
attr source receptionStateChanged
attr title "Radio reception state, count"
scalar mobilityDrones.sensor1.wlan[0].radio radioMode:count 981
attr interpolationmode sample-hold
attr source radioModeChanged
attr title "Radio mode, count"
statistic mobilityDrones.sensor1.wlan[0].radio radioChannel:histogram
field count 1
field mean 0
field stddev nan
field min 0
field max 0
field sum 0
field sqrsum 0
attr interpolationmode sample-hold
attr source radioChannelChanged
attr title "Radio channel, histogram"
bin	-inf	0
bin	-0.5	0
bin	-0.48	0
bin	-0.46	0
bin	-0.44	0
bin	-0.42	0
bin	-0.4	0
bin	-0.38	0
bin	-0.36	0
bin	-0.34	0
bin	-0.32	0
bin	-0.3	0
bin	-0.28	0
bin	-0.26	0
bin	-0.24	0
bin	-0.22	0
bin	-0.2	0
bin	-0.18	0
bin	-0.16	0
bin	-0.14	0
bin	-0.12	0
bin	-0.1	0
bin	-0.08	0
bin	-0.06	0
bin	-0.04	0
bin	-0.02	0
bin	0	1
bin	0.02	0
bin	0.04	0
bin	0.06	0
bin	0.08	0
bin	0.1	0
bin	0.12	0
bin	0.14	0
bin	0.16	0
bin	0.18	0
bin	0.2	0
bin	0.22	0
bin	0.24	0
bin	0.26	0
bin	0.28	0
bin	0.3	0
bin	0.32	0
bin	0.34	0
bin	0.36	0
bin	0.38	0
bin	0.4	0
bin	0.42	0
bin	0.44	0
bin	0.46	0
bin	0.48	0
bin	0.5	0
scalar mobilityDrones.sensor1.ipv4.ip packetDropAddressResolutionFailed:count 91
attr interpolationmode none
attr source packetDropReasonIsAddressResolutionFailed(packetDropped)
attr title "packet drop: address resolution failed, count"
scalar mobilityDrones.sensor1.ipv4.ip packetDropAddressResolutionFailed:sum(packetBytes) 3822
attr interpolationmode none
attr source packetDropReasonIsAddressResolutionFailed(packetDropped)
attr title "packet drop: address resolution failed, sum(packetBytes)"
scalar mobilityDrones.sensor1.ipv4.ip packetDropHopLimitReached:count 0
attr interpolationmode none
attr source packetDropReasonIsHopLimitReached(packetDropped)
attr title "packet drop: hop limit reached, count"
scalar mobilityDrones.sensor1.ipv4.ip packetDropHopLimitReached:sum(packetBytes) 0
attr interpolationmode none
attr source packetDropReasonIsHopLimitReached(packetDropped)
attr title "packet drop: hop limit reached, sum(packetBytes)"
scalar mobilityDrones.sensor1.ipv4.ip packetDropForwardingDisabled:count 0
attr interpolationmode none
attr source packetDropReasonIsForwardingDisabled(packetDropped)
attr title "packet drop: forwarding disabled, count"
scalar mobilityDrones.sensor1.ipv4.ip packetDropForwardingDisabled:sum(packetBytes) 0
attr interpolationmode none
attr source packetDropReasonIsForwardingDisabled(packetDropped)
attr title "packet drop: forwarding disabled, sum(packetBytes)"
scalar mobilityDrones.sensor1.ipv4.ip packetDropNoInterfaceFound:count 0
attr interpolationmode none
attr source packetDropReasonIsNoInterfaceFound(packetDropped)
attr title "packet drop: no interface found, count"
scalar mobilityDrones.sensor1.ipv4.ip packetDropNoInterfaceFound:sum(packetBytes) 0
attr interpolationmode none
attr source packetDropReasonIsNoInterfaceFound(packetDropped)
attr title "packet drop: no interface found, sum(packetBytes)"
scalar mobilityDrones.sensor1.ipv4.ip packetDropNoRouteFound:count 0
attr interpolationmode none
attr source packetDropReasonIsNoRouteFound(packetDropped)
attr title "packet drop: no route found, count"
scalar mobilityDrones.sensor1.ipv4.ip packetDropNoRouteFound:sum(packetBytes) 0
attr interpolationmode none
attr source packetDropReasonIsNoRouteFound(packetDropped)
attr title "packet drop: no route found, sum(packetBytes)"
scalar mobilityDrones.sensor1.ipv4.ip packetDropUndefined:count 0
attr interpolationmode none
attr source packetDropReasonIsUndefined(packetDropped)
attr title "packet drop: undefined, count"
scalar mobilityDrones.sensor1.ipv4.ip packetDropUndefined:sum(packetBytes) 0
attr interpolationmode none
attr source packetDropReasonIsUndefined(packetDropped)
attr title "packet drop: undefined, sum(packetBytes)"
scalar mobilityDrones.sensor1.ipv4.arp arpReplySent:count 0
attr source arpReplySent
attr title "ARP replies sent, count"
scalar mobilityDrones.sensor1.ipv4.arp arpReplySent:sum(packetBytes) 0
attr source arpReplySent
attr title "ARP replies sent, sum(packetBytes)"
scalar mobilityDrones.sensor1.ipv4.arp arpRequestSent:count 280
attr source arpRequestSent
attr title "ARP request sent, count"
scalar mobilityDrones.sensor1.ipv4.arp arpRequestSent:sum(packetBytes) 7840
attr source arpRequestSent
attr title "ARP request sent, sum(packetBytes)"
scalar mobilityDrones.sensor1.ipv4.arp arpResolutionFailed:count 91
attr title "ARP failed resolutions, count"
scalar mobilityDrones.sensor1.ipv4.arp arpResolutionCompleted:count 4
attr title "ARP completed resolutions, count"
scalar mobilityDrones.sensor1.ipv4.arp arpResolutionInitiated:count 95
attr title "ARP initiated resolutions, count"
scalar mobilityDrones.sensor1.udp packetReceived:count 0
attr interpolationmode none
attr source packetReceived
attr title "packets received, count"
scalar mobilityDrones.sensor1.udp packetReceived:sum(packetBytes) 0
attr interpolationmode none
attr source packetReceived
attr title "packets received, sum(packetBytes)"
scalar mobilityDrones.sensor1.udp packetSent:count 134
attr interpolationmode none
attr source packetSent
attr title "packets sent, count"
scalar mobilityDrones.sensor1.udp packetSent:sum(packetBytes) 2948
attr interpolationmode none
attr source packetSent
attr title "packets sent, sum(packetBytes)"
scalar mobilityDrones.sensor1.udp passedUpPk:count 0
attr interpolationmode none
attr source packetSentToUpper
attr title "packets passed up, count"
scalar mobilityDrones.sensor1.udp droppedPkWrongPort:count 0
attr interpolationmode none
attr source packetDropReasonIsNoPortFound(packetDropped)
attr title "packets dropped (wrong port), count"
scalar mobilityDrones.sensor1.udp droppedPkBadChecksum:count 0
attr interpolationmode none
attr source packetDropReasonIsIncorrectlyReceived(packetDropped)
attr title "packets dropped (checksum error), count"
scalar mobilityDrones.sensor1.app[0] "packets sent" 134
scalar mobilityDrones.sensor1.app[0] "packets received" 0
scalar mobilityDrones.sensor1.app[0] packetReceived:count 0
attr interpolationmode none
attr source packetReceived
attr title "packets received, count"
scalar mobilityDrones.sensor1.app[0] packetReceived:sum(packetBytes) 0
attr interpolationmode none
attr source packetReceived
attr title "packets received, sum(packetBytes)"
statistic mobilityDrones.sensor1.app[0] rcvdPkLifetime:stats
field count 0
field mean nan
field stddev nan
field min nan
field max nan
field sum 0
field sqrsum 0
attr interpolationmode none
attr source dataAge(packetReceived)
attr title "received packet lifetime, stats"
attr unit s
scalar mobilityDrones.sensor1.app[0] packetSent:count 134
attr interpolationmode none
attr source packetSent
attr title "packets sent, count"
scalar mobilityDrones.sensor1.app[0] packetSent:sum(packetBytes) 1876
attr interpolationmode none
attr source packetSent
attr title "packets sent, sum(packetBytes)"

