version 2
run Sim4drone-0-20210802-00:05:49-93899
attr configname Sim4drone
attr datetime 20210802-00:05:49
attr experiment Sim4drone
attr inifile mobilityDrones-omnetpp.ini
attr iterationvars ""
attr iterationvarsf ""
attr measurement ""
attr network mobilityDrones
attr processid 93899
attr repetition 0
attr replication #0
attr resultdir results
attr runnumber 0
attr seedset 0
param *.numUAVs 4
param *.drones[0].app[0].destAddresses "\"drones[1] drones[2] drones[3] sensor1\""
param *.drones[1].app[0].destAddresses "\"drones[0] drones[2] drones[3] sensor1\""
param *.drones[2].app[0].destAddresses "\"drones[0] drones[1] drones[3] sensor1\""
param *.drones[3].app[0].destAddresses "\"drones[0] drones[1] drones[2] sensor1\""
param *.drones[*].mobility.waypointFile "\"paths/mission.txt\""
param *.drones[*].app[*].timeoutDuration 5s
param *.drones[0].mobility.startTime 0s
param *.drones[1].mobility.startTime 40s
param *.drones[2].mobility.startTime 80s
param *.drones[3].mobility.startTime 110s
param *.drones[0].app[*].startTime "normal(1s, 1s)"
param *.drones[1].app[*].startTime "normal(40s, 1s)"
param *.drones[2].app[*].startTime "normal(80s, 1s)"
param *.drones[3].app[*].startTime "normal(110s, 1s)"
param *.sensor.osgModel "\"3d/drone.ive.100.scale.0,0,90.rot\""
param *.sensor.mobility.typename "\"StationaryMobility\""
param *.sensor*.mobility.coordinateSystemModule "\"\""
param *.sensor*.numApps 2
param *.sensor*.app[0].typename "\"UdpSensorCommunicationApp\""
param *.sensor*.app[0].destAddresses "\"drones[0] drones[1] drones[2] drones[3]\""
param *.sensor*.app[0].destPort 1000
param *.sensor*.app[0].sendInterval 3s
param *.sensor*.app[0].startTime exponential(1s)
param *.sensor*.app[0].messageLength 1454Byte
param *.sensor1.mobility.initialX 400m
param *.sensor1.mobility.initialY -200m
param *.sensor1.mobility.initialZ 3m
param *.sensor*.app[1].relayMode "\"BMesh\""
param *.radioMedium.backgroundNoise.bandwidth 2.8MHz
param *.radioMedium.backgroundNoise.power -110dBm
param *.sensor*.wlan[0].radio.receiver.bandwidth 2.8MHz
param *.drone*.wlan[0].radio.receiver.bandwidth 2.8MHz
param **.analogModel.ignorePartialInterference true
param *.drone*.app[1].startTime 0
param *.sensor*.ipv4.arp.typename "\"GlobalArp\""
param *.drone*.ipv4.arp.typename "\"GlobalArp\""
param *.sensor*.ipv4.ip.directBroadcastInterfaces "\"wlan1\""
param *.drone*.ipv4.ip.directBroadcastInterfaces "\"wlan1\""
param *.sensor*.ipv4.ip.limitedBroadcast true
param *.drone*.ipv4.ip.limitedBroadcast true
param *.sensor*.app[1].typename "\"MamNodeApp\""
param *.sensor*.app[1].destAddresses "\"drones[1]\""
param *.sensor*.app[1].localPort 5000
param *.sensor*.app[1].destPort 5000
param *.sensor*.app[1].messageLength 1000B
param *.sensor*.app[1].sendInterval exponential(12ms)
param *.sensor*.app[1].packetName "\"UDPData\""
param *.sensor*_rly*.app[1].relayNode true
param *.drone*.numApps 2
param *.drone*.app[1].typename "\"MamDataCollectorApp\""
param *.drone*.app[1].localPort 5000
param *.drone*.app[1].destPort 5000
param *.drone*.numWlanInterfaces 2
param *.drone*.wlan[1].typename "\"BleMeshNarrowbandInterface\""
param *.drone*.wlan[1].radio.transmitter.power 0.275mW
param *.sensor*.wlan[1].typename "\"BleMeshNarrowbandInterface\""
param *.sensor*.numWlanInterfaces 2
param *.sensor_lpn*.wlan[1].mac.lowPowerNode true
param *.sensor_lpn*.app[1].lowPowerNode true
param *.sensor_fn*.app[1].friendNode true
param *.sensor*.wlan[1].radio.transmitter.power 0.275mW
param *.visualizer.osgVisualizer.typename "\"IntegratedOsgVisualizer\""
param *.visualizer.osgVisualizer.sceneVisualizer.typename "\"SceneOsgEarthVisualizer\""
param *.visualizer.osgVisualizer.sceneVisualizer.mapFile "\"map.earth\""
param *.visualizer.osgVisualizer.sceneVisualizer.sceneImageSize 10000m
param *.visualizer.osgVisualizer.sceneVisualizer.axisLength 500m
param *.visualizer.osgVisualizer.sceneVisualizer.sceneMinX -200m
param *.visualizer.osgVisualizer.sceneVisualizer.sceneMinY -200m
param *.visualizer.osgVisualizer.sceneVisualizer.sceneMinZ 0m
param *.visualizer.osgVisualizer.sceneVisualizer.sceneMaxX 5000m
param *.visualizer.osgVisualizer.sceneVisualizer.sceneMaxY 5000m
param *.visualizer.osgVisualizer.sceneVisualizer.sceneMaxZ 5000m
param *.visualizer.osgVisualizer.networkNodeVisualizer.displayModuleName true
param *.visualizer.*.statisticVisualizer.signalName "\"dataLoad\""
param *.visualizer.*.statisticVisualizer.format "\"(%v/20)\""
param *.visualizer.*.statisticVisualizer.textColor "\"red\""
param *.visualizer.*.statisticVisualizer.font "\"bold\""
param *.visualizer.*.statisticVisualizer.sourceFilter "\"*.drones[*].**\""
param *.visualizer.*.mobilityVisualizer.displayMobility true
param *.visualizer.*.mobilityVisualizer.displayPositions true
param *.visualizer.*.mobilityVisualizer.displayOrientations true
param *.visualizer.*.mobilityVisualizer.displayVelocities true
param *.visualizer.*.mobilityVisualizer.displayMovementTrails true
param *.visualizer.*.mobilityVisualizer.animationSpeed 10
param *.visualizer.mediumVisualizer.displaySignals true
param **.constraintAreaMinX -5000m
param **.constraintAreaMinY -5000m
param **.constraintAreaMinZ -100m
param **.constraintAreaMaxX 5000m
param **.constraintAreaMaxY 5000m
param **.constraintAreaMaxZ 5000m
param *.drones*.wlan[0].radio.displayCommunicationRange true
param *.sensor*.wlan[0].radio.energyConsumer.typename "\"SensorStateBasedEpEnergyConsumer\""
param *.sensor*.wlan[0].radio.energyConsumer.offPowerConsumption 0mW
param *.sensor*.wlan[0].radio.energyConsumer.sleepPowerConsumption 1mW
param *.sensor*.wlan[0].radio.energyConsumer.switchingPowerConsumption 1mW
param *.sensor*.wlan[0].radio.energyConsumer.receiverIdlePowerConsumption 2mW
param *.sensor*.wlan[0].radio.energyConsumer.receiverBusyPowerConsumption 5mW
param *.sensor*.wlan[0].radio.energyConsumer.receiverReceivingPowerConsumption 10mW
param *.sensor*.wlan[0].radio.energyConsumer.transmitterIdlePowerConsumption 2mW
param *.sensor*.wlan[0].radio.energyConsumer.transmitterTransmittingPowerConsumption 100mW
param *.sensor*.energyStorage.typename "\"IdealEpEnergyStorage\""
param *.sensor*.wlan[0].radio.displayInterferenceRange false
param *.coordinateSystem.sceneLongitude -47.926634deg
param *.coordinateSystem.sceneLatitude -15.840075deg
param *.coordinateSystem.sceneHeading 90deg
param *.environment.ground.typename "\"FlatGround\""
param *.drones[*].osgModel "\"3d/drone.ive.80.scale.0,0,90.rot\""
param *.drones[*].mobility.coordinateSystemModule "\"coordinateSystem\""
param *.drones[*].mobility.waypointFile "\"paths/gradys-vai-e-volta-descendo-5s-v1.txt\""
param *.drones[*].mobility.waypointProximity 1m
param **.mobility.initFromDisplayString false
param *.drones[*].mobility.speed 10mps
param *.drones[*].numApps 1
param *.drones[*].app[0].typename "\"UdpMobileNodeCommunicationApp\""
param *.drones[*].app[0].localPort 1000
param *.drones[*].app[0].destPort 1000
param *.drones[*].app[0].sendInterval 1s
param *.drones[*].app[0].startTime 1s
param *.drones[*].app[0].stopTime -1s
param *.drones[*].app[0].messageLength 1454Byte
param *.drones[*].app[0].packetName "\"UAV-DEFAULT-PAYLOAD\""
param *.drones[*].mobility.typename "\"DroneMobility\""
param *.sensor.osgModel "\"3d/drone.ive.100.scale.0,0,90.rot\""
param *.sensor.mobility.typename "\"StationaryMobility\""
param *.sensor*.mobility.coordinateSystemModule "\"\""

vector 0 mobilityDrones.sensor1.energyStorage powerConsumption:vector ETV
attr interpolationmode sample-hold
attr source powerConsumptionChanged
attr title "Power consumption, vector"
vector 1 mobilityDrones.drones[0].wlan[0].radio radioMode:vector ETV
attr interpolationmode sample-hold
attr source radioModeChanged
attr title "Radio mode, vector"
vector 2 mobilityDrones.drones[0].wlan[0].radio radioChannel:vector ETV
attr interpolationmode sample-hold
attr source radioChannelChanged
attr title "Radio channel, vector"
vector 3 mobilityDrones.drones[0].wlan[1].radio radioMode:vector ETV
attr interpolationmode sample-hold
attr source radioModeChanged
attr title "Radio mode, vector"
vector 4 mobilityDrones.drones[1].wlan[0].radio radioMode:vector ETV
attr interpolationmode sample-hold
attr source radioModeChanged
attr title "Radio mode, vector"
vector 5 mobilityDrones.drones[1].wlan[0].radio radioChannel:vector ETV
attr interpolationmode sample-hold
attr source radioChannelChanged
attr title "Radio channel, vector"
vector 6 mobilityDrones.drones[1].wlan[1].radio radioMode:vector ETV
attr interpolationmode sample-hold
attr source radioModeChanged
attr title "Radio mode, vector"
vector 7 mobilityDrones.drones[2].wlan[0].radio radioMode:vector ETV
attr interpolationmode sample-hold
attr source radioModeChanged
attr title "Radio mode, vector"
vector 8 mobilityDrones.drones[2].wlan[0].radio radioChannel:vector ETV
attr interpolationmode sample-hold
attr source radioChannelChanged
attr title "Radio channel, vector"
vector 9 mobilityDrones.drones[2].wlan[1].radio radioMode:vector ETV
attr interpolationmode sample-hold
attr source radioModeChanged
attr title "Radio mode, vector"
vector 10 mobilityDrones.drones[3].wlan[0].radio radioMode:vector ETV
attr interpolationmode sample-hold
attr source radioModeChanged
attr title "Radio mode, vector"
vector 11 mobilityDrones.drones[3].wlan[0].radio radioChannel:vector ETV
attr interpolationmode sample-hold
attr source radioChannelChanged
attr title "Radio channel, vector"
vector 12 mobilityDrones.drones[3].wlan[1].radio radioMode:vector ETV
attr interpolationmode sample-hold
attr source radioModeChanged
attr title "Radio mode, vector"
vector 13 mobilityDrones.sensor1.wlan[0].radio radioMode:vector ETV
attr interpolationmode sample-hold
attr source radioModeChanged
attr title "Radio mode, vector"
vector 14 mobilityDrones.sensor1.wlan[0].radio.energyConsumer powerConsumption:vector ETV
attr interpolationmode sample-hold
attr source powerConsumptionChanged
attr title "Power consumption, vector"
vector 15 mobilityDrones.sensor1.wlan[0].radio radioChannel:vector ETV
attr interpolationmode sample-hold
attr source radioChannelChanged
attr title "Radio channel, vector"
vector 16 mobilityDrones.sensor1.wlan[1].radio radioMode:vector ETV
attr interpolationmode sample-hold
attr source radioModeChanged
attr title "Radio mode, vector"
vector 17 mobilityDrones.drones[0].wlan[0].radio receptionState:vector ETV
attr interpolationmode sample-hold
attr source receptionStateChanged
attr title "Radio reception state, vector"
vector 18 mobilityDrones.drones[0].wlan[1].radio receptionState:vector ETV
attr interpolationmode sample-hold
attr source receptionStateChanged
attr title "Radio reception state, vector"
vector 19 mobilityDrones.drones[1].wlan[0].radio receptionState:vector ETV
attr interpolationmode sample-hold
attr source receptionStateChanged
attr title "Radio reception state, vector"
vector 20 mobilityDrones.drones[1].wlan[1].radio receptionState:vector ETV
attr interpolationmode sample-hold
attr source receptionStateChanged
attr title "Radio reception state, vector"
vector 21 mobilityDrones.drones[2].wlan[0].radio receptionState:vector ETV
attr interpolationmode sample-hold
attr source receptionStateChanged
attr title "Radio reception state, vector"
vector 22 mobilityDrones.drones[2].wlan[1].radio receptionState:vector ETV
attr interpolationmode sample-hold
attr source receptionStateChanged
attr title "Radio reception state, vector"
vector 23 mobilityDrones.drones[3].wlan[0].radio receptionState:vector ETV
attr interpolationmode sample-hold
attr source receptionStateChanged
attr title "Radio reception state, vector"
vector 24 mobilityDrones.drones[3].wlan[1].radio receptionState:vector ETV
attr interpolationmode sample-hold
attr source receptionStateChanged
attr title "Radio reception state, vector"
vector 25 mobilityDrones.sensor1.wlan[0].radio receptionState:vector ETV
attr interpolationmode sample-hold
attr source receptionStateChanged
attr title "Radio reception state, vector"
vector 26 mobilityDrones.sensor1.wlan[1].radio receptionState:vector ETV
attr interpolationmode sample-hold
attr source receptionStateChanged
attr title "Radio reception state, vector"
vector 27 mobilityDrones.drones[0].wlan[0].mac.dcf.recoveryProcedure contentionWindowChanged:vector ETV
attr interpolationmode sample-hold
attr title "contention window, vector"
vector 28 mobilityDrones.drones[1].wlan[0].mac.dcf.recoveryProcedure contentionWindowChanged:vector ETV
attr interpolationmode sample-hold
attr title "contention window, vector"
vector 29 mobilityDrones.drones[2].wlan[0].mac.dcf.recoveryProcedure contentionWindowChanged:vector ETV
attr interpolationmode sample-hold
attr title "contention window, vector"
vector 30 mobilityDrones.drones[3].wlan[0].mac.dcf.recoveryProcedure contentionWindowChanged:vector ETV
attr interpolationmode sample-hold
attr title "contention window, vector"
vector 31 mobilityDrones.sensor1.wlan[0].mac.dcf.recoveryProcedure contentionWindowChanged:vector ETV
attr interpolationmode sample-hold
attr title "contention window, vector"
vector 32 mobilityDrones.drones[0].app[0] packetSent:vector(packetBytes) ETV
attr interpolationmode none
attr source packetSent
attr title "packets sent, vector(packetBytes)"
vector 33 mobilityDrones.drones[0].udp packetSent:vector(packetBytes) ETV
attr interpolationmode none
attr source packetSent
attr title "packets sent, vector(packetBytes)"
vector 34 mobilityDrones.drones[0].lo[0].lo rcvdPkFromHl:vector(packetBytes) ETV
attr interpolationmode none
attr source packetReceivedFromUpper
attr title "packets received from higher layer, vector(packetBytes)"
vector 35 mobilityDrones.drones[0].lo[0].lo passedUpPk:vector(packetBytes) ETV
attr interpolationmode none
attr source packetSentToUpper
attr title "packets passed to higher layer, vector(packetBytes)"
vector 36 mobilityDrones.drones[0].wlan[0].mac packetReceivedFromUpper:vector(packetBytes) ETV
attr interpolationmode none
attr title "packets received from upper layer, vector(packetBytes)"
vector 37 mobilityDrones.drones[0].wlan[0].mac.dcf.channelAccess.pendingQueue packetPushed:vector(packetBytes) ETV
attr interpolationmode none
attr title "packet pushed, vector(packetBytes)"
vector 38 mobilityDrones.drones[0].wlan[0].mac.dcf.channelAccess.pendingQueue queueLength:vector ETV
attr interpolationmode sample-hold
attr source "count(packetPushed) - count(packetPopped) - count(packetRemoved) - count(packetDropped)"
attr title "queue length, vector"
vector 39 mobilityDrones.drones[0].wlan[0].mac.dcf.channelAccess.contention backoffPeriodGenerated:vector ETV
attr interpolationmode none
attr title "backoff periods, vector"
vector 40 mobilityDrones.drones[0].wlan[0].mac.dcf.channelAccess.contention backoffActive:vector ETV
attr interpolationmode sample-hold
attr source count(backoffStarted)-count(backoffStopped)
attr title "backoff active, vector"
vector 41 mobilityDrones.drones[0].udp packetReceived:vector(packetBytes) ETV
attr interpolationmode none
attr source packetReceived
attr title "packets received, vector(packetBytes)"
vector 42 mobilityDrones.drones[0].udp passedUpPk:vector(count) ETV
attr interpolationmode none
attr source packetSentToUpper
attr title "packets passed up, vector(count)"
vector 43 mobilityDrones.drones[0].wlan[0].mac.dcf.channelAccess.pendingQueue packetPopped:vector(packetBytes) ETV
attr interpolationmode none
attr title "packet popped, vector(packetBytes)"
vector 44 mobilityDrones.drones[0].wlan[0].mac.dcf.channelAccess.pendingQueue queueingTime:vector ETV
attr interpolationmode none
attr source queueingTime(packetPopped)
attr title "queueing times, vector"
attr unit s
vector 45 mobilityDrones.drones[0].wlan[0].mac.dcf.channelAccess.inProgressFrames queueLength:vector ETV
attr interpolationmode sample-hold
attr source "count(packetEnqueued) - count(packetDequeued)"
attr title "queue length, vector"
vector 46 mobilityDrones.drones[0].wlan[0].mac.dcf datarateSelected:vector ETV
attr interpolationmode none
attr title "datarates selected, vector"
vector 47 mobilityDrones.drones[0].wlan[0].mac packetSentToLower:vector(packetBytes) ETV
attr interpolationmode none
attr title "packets sent to lower layer, vector(packetBytes)"
vector 48 mobilityDrones.drones[0].wlan[0].mac.dcf frameSequenceActive:vector ETV
attr interpolationmode sample-hold
attr source count(frameSequenceStarted)-count(frameSequenceFinished)
attr title "frame sequence active, vector"
vector 49 mobilityDrones.drones[0].wlan[0].radio transmissionState:vector ETV
attr interpolationmode sample-hold
attr source transmissionStateChanged
attr title "Radio transmission state, vector"
vector 50 mobilityDrones.drones[0].wlan[0].mac.dcf packetSentToPeer:vector(packetBytes) ETV
attr interpolationmode none
attr title "packets sent, vector(packetBytes)"
vector 51 mobilityDrones.drones[0].wlan[0].mac.dcf packetSentToPeerMulticast:vector(packetBytes) ETV
attr interpolationmode none
attr source ieee80211Multicast(packetSentToPeer)
attr title "packets sent: multicast, vector(packetBytes)"
vector 52 mobilityDrones.drones[0].wlan[0].mac.dcf packetSentToPeerWithoutRetry:vector(packetBytes) ETV
attr interpolationmode none
attr source ieee80211NotRetry(packetSentToPeer)
attr title "packets sent: without retry, vector(packetBytes)"
vector 53 mobilityDrones.drones[0].wlan[0].mac.dcf.channelAccess.inProgressFrames queueingTime:vector ETV
attr interpolationmode none
attr source queueingTime(packetDequeued)
attr title "queueing times, vector"
vector 54 mobilityDrones.sensor1.app[0] packetSent:vector(packetBytes) ETV
attr interpolationmode none
attr source packetSent
attr title "packets sent, vector(packetBytes)"
vector 55 mobilityDrones.sensor1.udp packetSent:vector(packetBytes) ETV
attr interpolationmode none
attr source packetSent
attr title "packets sent, vector(packetBytes)"
vector 56 mobilityDrones.sensor1.wlan[0].mac packetReceivedFromUpper:vector(packetBytes) ETV
attr interpolationmode none
attr title "packets received from upper layer, vector(packetBytes)"
vector 57 mobilityDrones.sensor1.wlan[0].mac.dcf.channelAccess.pendingQueue packetPushed:vector(packetBytes) ETV
attr interpolationmode none
attr title "packet pushed, vector(packetBytes)"
vector 58 mobilityDrones.sensor1.wlan[0].mac.dcf.channelAccess.pendingQueue queueLength:vector ETV
attr interpolationmode sample-hold
attr source "count(packetPushed) - count(packetPopped) - count(packetRemoved) - count(packetDropped)"
attr title "queue length, vector"
vector 59 mobilityDrones.sensor1.wlan[0].mac.dcf.channelAccess.contention backoffPeriodGenerated:vector ETV
attr interpolationmode none
attr title "backoff periods, vector"
vector 60 mobilityDrones.sensor1.wlan[0].mac.dcf.channelAccess.contention backoffActive:vector ETV
attr interpolationmode sample-hold
attr source count(backoffStarted)-count(backoffStopped)
attr title "backoff active, vector"
vector 61 mobilityDrones.sensor1.wlan[0].mac.dcf.channelAccess.pendingQueue packetPopped:vector(packetBytes) ETV
attr interpolationmode none
attr title "packet popped, vector(packetBytes)"
vector 62 mobilityDrones.sensor1.wlan[0].mac.dcf.channelAccess.pendingQueue queueingTime:vector ETV
attr interpolationmode none
attr source queueingTime(packetPopped)
attr title "queueing times, vector"
attr unit s
vector 63 mobilityDrones.sensor1.wlan[0].mac.dcf.channelAccess.inProgressFrames queueLength:vector ETV
attr interpolationmode sample-hold
attr source "count(packetEnqueued) - count(packetDequeued)"
attr title "queue length, vector"
vector 64 mobilityDrones.sensor1.wlan[0].mac.dcf datarateSelected:vector ETV
attr interpolationmode none
attr title "datarates selected, vector"
vector 65 mobilityDrones.sensor1.wlan[0].mac packetSentToLower:vector(packetBytes) ETV
attr interpolationmode none
attr title "packets sent to lower layer, vector(packetBytes)"
vector 66 mobilityDrones.sensor1.wlan[0].mac.dcf frameSequenceActive:vector ETV
attr interpolationmode sample-hold
attr source count(frameSequenceStarted)-count(frameSequenceFinished)
attr title "frame sequence active, vector"
vector 67 mobilityDrones.sensor1.energyStorage residualEnergyCapacity:vector ETV
attr interpolationmode linear
attr source residualEnergyCapacityChanged
attr title "Residual energy capacity, vector"
vector 68 mobilityDrones.sensor1.wlan[0].radio transmissionState:vector ETV
attr interpolationmode sample-hold
attr source transmissionStateChanged
attr title "Radio transmission state, vector"
vector 69 mobilityDrones.sensor1.wlan[0].mac.dcf packetSentToPeer:vector(packetBytes) ETV
attr interpolationmode none
attr title "packets sent, vector(packetBytes)"
vector 70 mobilityDrones.sensor1.wlan[0].mac.dcf packetSentToPeerUnicast:vector(packetBytes) ETV
attr interpolationmode none
attr source ieee80211Unicast(packetSentToPeer)
attr title "packets sent: unicast, vector(packetBytes)"
vector 71 mobilityDrones.sensor1.wlan[0].mac.dcf packetSentToPeerWithoutRetry:vector(packetBytes) ETV
attr interpolationmode none
attr source ieee80211NotRetry(packetSentToPeer)
attr title "packets sent: without retry, vector(packetBytes)"
vector 72 mobilityDrones.sensor1.wlan[0].mac.rx nav:vector ETV
attr interpolationmode linear
attr source navChanged
attr title "network allocation vector, vector"
vector 73 mobilityDrones.sensor1.wlan[0].mac.dcf packetSentToPeerWithRetry:vector(packetBytes) ETV
attr interpolationmode none
attr source ieee80211Retry(packetSentToPeer)
attr title "packets sent: with retry, vector(packetBytes)"
vector 74 mobilityDrones.sensor1.wlan[0].mac.dcf.channelAccess.inProgressFrames queueingTime:vector ETV
attr interpolationmode none
attr source queueingTime(packetDequeued)
attr title "queueing times, vector"
vector 75 mobilityDrones.sensor1.wlan[0].mac.dcf packetDrop:vector(packetBytes) ETV
attr interpolationmode none
attr source packetDropped
attr title "packet drops, vector(packetBytes)"
vector 76 mobilityDrones.sensor1.wlan[0].mac.dcf packetDropRetryLimitReached:vector(packetBytes) ETV
attr interpolationmode none
attr source packetDropReasonIsRetryLimitReached(packetDropped)
attr title "packet drops: retry limit reached, vector(packetBytes)"
vector 77 mobilityDrones.sensor1.wlan[0].mac packetDrop:vector(packetBytes) ETV
attr interpolationmode none
attr source packetDropped
attr title "packet drops, vector(packetBytes)"
vector 78 mobilityDrones.sensor1.wlan[0].mac packetDropRetryLimitReached:vector(packetBytes) ETV
attr interpolationmode none
attr source packetDropReasonIsRetryLimitReached(packetDropped)
attr title "packet drops: retry limit reached, vector(packetBytes)"
vector 79 mobilityDrones.drones[0].app[1] packetReceived:vector(packetBytes) ETV
attr interpolationmode none
attr source packetReceived
attr title "packets received, vector(packetBytes)"
vector 80 mobilityDrones.drones[0].app[1] throughput:vector ETV
attr source throughput(packetReceived)
attr title "throughput, vector"
attr unit bps
vector 81 mobilityDrones.drones[0].app[1] endToEndDelay:vector ETV
attr interpolationmode none
attr source dataAge(packetReceived)
attr title "end-to-end delay, vector"
attr unit ms
vector 82 mobilityDrones.drones[0].wlan[1].radio transmissionState:vector ETV
attr interpolationmode sample-hold
attr source transmissionStateChanged
attr title "Radio transmission state, vector"
vector 83 mobilityDrones.drones[0].wlan[0].mac.dcf packetSentToPeerBroadcast:vector(packetBytes) ETV
attr interpolationmode none
attr source ieee80211Broadcast(packetSentToPeer)
attr title "packets sent: broadcast , vector(packetBytes)"
vector 84 mobilityDrones.drones[1].udp packetReceived:vector(packetBytes) ETV
attr interpolationmode none
attr source packetReceived
attr title "packets received, vector(packetBytes)"
vector 85 mobilityDrones.drones[1].udp droppedPkWrongPort:vector(count) ETV
attr interpolationmode none
attr source packetDropReasonIsNoPortFound(packetDropped)
attr title "packets dropped (wrong port), vector(count)"
vector 86 mobilityDrones.drones[2].udp packetReceived:vector(packetBytes) ETV
attr interpolationmode none
attr source packetReceived
attr title "packets received, vector(packetBytes)"
vector 87 mobilityDrones.drones[2].udp droppedPkWrongPort:vector(count) ETV
attr interpolationmode none
attr source packetDropReasonIsNoPortFound(packetDropped)
attr title "packets dropped (wrong port), vector(count)"
vector 88 mobilityDrones.drones[3].udp packetReceived:vector(packetBytes) ETV
attr interpolationmode none
attr source packetReceived
attr title "packets received, vector(packetBytes)"
vector 89 mobilityDrones.drones[3].udp droppedPkWrongPort:vector(count) ETV
attr interpolationmode none
attr source packetDropReasonIsNoPortFound(packetDropped)
attr title "packets dropped (wrong port), vector(count)"
vector 90 mobilityDrones.drones[1].app[0] packetSent:vector(packetBytes) ETV
attr interpolationmode none
attr source packetSent
attr title "packets sent, vector(packetBytes)"
vector 91 mobilityDrones.drones[1].udp packetSent:vector(packetBytes) ETV
attr interpolationmode none
attr source packetSent
attr title "packets sent, vector(packetBytes)"
vector 92 mobilityDrones.drones[1].lo[0].lo rcvdPkFromHl:vector(packetBytes) ETV
attr interpolationmode none
attr source packetReceivedFromUpper
attr title "packets received from higher layer, vector(packetBytes)"
vector 93 mobilityDrones.drones[1].lo[0].lo passedUpPk:vector(packetBytes) ETV
attr interpolationmode none
attr source packetSentToUpper
attr title "packets passed to higher layer, vector(packetBytes)"
vector 94 mobilityDrones.drones[1].wlan[0].mac packetReceivedFromUpper:vector(packetBytes) ETV
attr interpolationmode none
attr title "packets received from upper layer, vector(packetBytes)"
vector 95 mobilityDrones.drones[1].wlan[0].mac.dcf.channelAccess.pendingQueue packetPushed:vector(packetBytes) ETV
attr interpolationmode none
attr title "packet pushed, vector(packetBytes)"
vector 96 mobilityDrones.drones[1].wlan[0].mac.dcf.channelAccess.pendingQueue queueLength:vector ETV
attr interpolationmode sample-hold
attr source "count(packetPushed) - count(packetPopped) - count(packetRemoved) - count(packetDropped)"
attr title "queue length, vector"
vector 97 mobilityDrones.drones[1].wlan[0].mac.dcf.channelAccess.contention backoffPeriodGenerated:vector ETV
attr interpolationmode none
attr title "backoff periods, vector"
vector 98 mobilityDrones.drones[1].wlan[0].mac.dcf.channelAccess.contention backoffActive:vector ETV
attr interpolationmode sample-hold
attr source count(backoffStarted)-count(backoffStopped)
attr title "backoff active, vector"
vector 99 mobilityDrones.drones[1].udp passedUpPk:vector(count) ETV
attr interpolationmode none
attr source packetSentToUpper
attr title "packets passed up, vector(count)"
vector 100 mobilityDrones.drones[1].wlan[0].mac.dcf.channelAccess.pendingQueue packetPopped:vector(packetBytes) ETV
attr interpolationmode none
attr title "packet popped, vector(packetBytes)"
vector 101 mobilityDrones.drones[1].wlan[0].mac.dcf.channelAccess.pendingQueue queueingTime:vector ETV
attr interpolationmode none
attr source queueingTime(packetPopped)
attr title "queueing times, vector"
attr unit s
vector 102 mobilityDrones.drones[1].wlan[0].mac.dcf.channelAccess.inProgressFrames queueLength:vector ETV
attr interpolationmode sample-hold
attr source "count(packetEnqueued) - count(packetDequeued)"
attr title "queue length, vector"
vector 103 mobilityDrones.drones[1].wlan[0].mac.dcf datarateSelected:vector ETV
attr interpolationmode none
attr title "datarates selected, vector"
vector 104 mobilityDrones.drones[1].wlan[0].mac packetSentToLower:vector(packetBytes) ETV
attr interpolationmode none
attr title "packets sent to lower layer, vector(packetBytes)"
vector 105 mobilityDrones.drones[1].wlan[0].mac.dcf frameSequenceActive:vector ETV
attr interpolationmode sample-hold
attr source count(frameSequenceStarted)-count(frameSequenceFinished)
attr title "frame sequence active, vector"
vector 106 mobilityDrones.drones[1].wlan[0].radio transmissionState:vector ETV
attr interpolationmode sample-hold
attr source transmissionStateChanged
attr title "Radio transmission state, vector"
vector 107 mobilityDrones.drones[1].wlan[0].mac.dcf packetSentToPeer:vector(packetBytes) ETV
attr interpolationmode none
attr title "packets sent, vector(packetBytes)"
vector 108 mobilityDrones.drones[1].wlan[0].mac.dcf packetSentToPeerMulticast:vector(packetBytes) ETV
attr interpolationmode none
attr source ieee80211Multicast(packetSentToPeer)
attr title "packets sent: multicast, vector(packetBytes)"
vector 109 mobilityDrones.drones[1].wlan[0].mac.dcf packetSentToPeerWithoutRetry:vector(packetBytes) ETV
attr interpolationmode none
attr source ieee80211NotRetry(packetSentToPeer)
attr title "packets sent: without retry, vector(packetBytes)"
vector 110 mobilityDrones.drones[1].wlan[0].mac.dcf.channelAccess.inProgressFrames queueingTime:vector ETV
attr interpolationmode none
attr source queueingTime(packetDequeued)
attr title "queueing times, vector"
vector 111 mobilityDrones.drones[1].app[1] packetReceived:vector(packetBytes) ETV
attr interpolationmode none
attr source packetReceived
attr title "packets received, vector(packetBytes)"
vector 112 mobilityDrones.drones[1].app[1] throughput:vector ETV
attr source throughput(packetReceived)
attr title "throughput, vector"
attr unit bps
vector 113 mobilityDrones.drones[1].app[1] endToEndDelay:vector ETV
attr interpolationmode none
attr source dataAge(packetReceived)
attr title "end-to-end delay, vector"
attr unit ms
vector 114 mobilityDrones.drones[1].wlan[0].mac.dcf packetSentToPeerBroadcast:vector(packetBytes) ETV
attr interpolationmode none
attr source ieee80211Broadcast(packetSentToPeer)
attr title "packets sent: broadcast , vector(packetBytes)"
vector 115 mobilityDrones.drones[1].wlan[1].radio transmissionState:vector ETV
attr interpolationmode sample-hold
attr source transmissionStateChanged
attr title "Radio transmission state, vector"
vector 116 mobilityDrones.drones[2].app[0] packetSent:vector(packetBytes) ETV
attr interpolationmode none
attr source packetSent
attr title "packets sent, vector(packetBytes)"
vector 117 mobilityDrones.drones[2].udp packetSent:vector(packetBytes) ETV
attr interpolationmode none
attr source packetSent
attr title "packets sent, vector(packetBytes)"
vector 118 mobilityDrones.drones[2].lo[0].lo rcvdPkFromHl:vector(packetBytes) ETV
attr interpolationmode none
attr source packetReceivedFromUpper
attr title "packets received from higher layer, vector(packetBytes)"
vector 119 mobilityDrones.drones[2].lo[0].lo passedUpPk:vector(packetBytes) ETV
attr interpolationmode none
attr source packetSentToUpper
attr title "packets passed to higher layer, vector(packetBytes)"
vector 120 mobilityDrones.drones[2].wlan[0].mac packetReceivedFromUpper:vector(packetBytes) ETV
attr interpolationmode none
attr title "packets received from upper layer, vector(packetBytes)"
vector 121 mobilityDrones.drones[2].wlan[0].mac.dcf.channelAccess.pendingQueue packetPushed:vector(packetBytes) ETV
attr interpolationmode none
attr title "packet pushed, vector(packetBytes)"
vector 122 mobilityDrones.drones[2].wlan[0].mac.dcf.channelAccess.pendingQueue queueLength:vector ETV
attr interpolationmode sample-hold
attr source "count(packetPushed) - count(packetPopped) - count(packetRemoved) - count(packetDropped)"
attr title "queue length, vector"
vector 123 mobilityDrones.drones[2].wlan[0].mac.dcf.channelAccess.contention backoffPeriodGenerated:vector ETV
attr interpolationmode none
attr title "backoff periods, vector"
vector 124 mobilityDrones.drones[2].wlan[0].mac.dcf.channelAccess.contention backoffActive:vector ETV
attr interpolationmode sample-hold
attr source count(backoffStarted)-count(backoffStopped)
attr title "backoff active, vector"
vector 125 mobilityDrones.drones[2].udp passedUpPk:vector(count) ETV
attr interpolationmode none
attr source packetSentToUpper
attr title "packets passed up, vector(count)"
vector 126 mobilityDrones.drones[2].wlan[0].mac.dcf.channelAccess.pendingQueue packetPopped:vector(packetBytes) ETV
attr interpolationmode none
attr title "packet popped, vector(packetBytes)"
vector 127 mobilityDrones.drones[2].wlan[0].mac.dcf.channelAccess.pendingQueue queueingTime:vector ETV
attr interpolationmode none
attr source queueingTime(packetPopped)
attr title "queueing times, vector"
attr unit s
vector 128 mobilityDrones.drones[2].wlan[0].mac.dcf.channelAccess.inProgressFrames queueLength:vector ETV
attr interpolationmode sample-hold
attr source "count(packetEnqueued) - count(packetDequeued)"
attr title "queue length, vector"
vector 129 mobilityDrones.drones[2].wlan[0].mac.dcf datarateSelected:vector ETV
attr interpolationmode none
attr title "datarates selected, vector"
vector 130 mobilityDrones.drones[2].wlan[0].mac packetSentToLower:vector(packetBytes) ETV
attr interpolationmode none
attr title "packets sent to lower layer, vector(packetBytes)"
vector 131 mobilityDrones.drones[2].wlan[0].mac.dcf frameSequenceActive:vector ETV
attr interpolationmode sample-hold
attr source count(frameSequenceStarted)-count(frameSequenceFinished)
attr title "frame sequence active, vector"
vector 132 mobilityDrones.drones[2].wlan[0].radio transmissionState:vector ETV
attr interpolationmode sample-hold
attr source transmissionStateChanged
attr title "Radio transmission state, vector"
vector 133 mobilityDrones.drones[2].wlan[0].mac.dcf packetSentToPeer:vector(packetBytes) ETV
attr interpolationmode none
attr title "packets sent, vector(packetBytes)"
vector 134 mobilityDrones.drones[2].wlan[0].mac.dcf packetSentToPeerMulticast:vector(packetBytes) ETV
attr interpolationmode none
attr source ieee80211Multicast(packetSentToPeer)
attr title "packets sent: multicast, vector(packetBytes)"
vector 135 mobilityDrones.drones[2].wlan[0].mac.dcf packetSentToPeerWithoutRetry:vector(packetBytes) ETV
attr interpolationmode none
attr source ieee80211NotRetry(packetSentToPeer)
attr title "packets sent: without retry, vector(packetBytes)"
vector 136 mobilityDrones.drones[2].wlan[0].mac.dcf.channelAccess.inProgressFrames queueingTime:vector ETV
attr interpolationmode none
attr source queueingTime(packetDequeued)
attr title "queueing times, vector"
vector 137 mobilityDrones.drones[2].app[1] packetReceived:vector(packetBytes) ETV
attr interpolationmode none
attr source packetReceived
attr title "packets received, vector(packetBytes)"
vector 138 mobilityDrones.drones[2].app[1] throughput:vector ETV
attr source throughput(packetReceived)
attr title "throughput, vector"
attr unit bps
vector 139 mobilityDrones.drones[2].app[1] endToEndDelay:vector ETV
attr interpolationmode none
attr source dataAge(packetReceived)
attr title "end-to-end delay, vector"
attr unit ms
vector 140 mobilityDrones.drones[2].wlan[0].mac.dcf packetSentToPeerBroadcast:vector(packetBytes) ETV
attr interpolationmode none
attr source ieee80211Broadcast(packetSentToPeer)
attr title "packets sent: broadcast , vector(packetBytes)"
vector 141 mobilityDrones.drones[2].wlan[1].radio transmissionState:vector ETV
attr interpolationmode sample-hold
attr source transmissionStateChanged
attr title "Radio transmission state, vector"
vector 142 mobilityDrones.sensor1.udp packetReceived:vector(packetBytes) ETV
attr interpolationmode none
attr source packetReceived
attr title "packets received, vector(packetBytes)"
vector 143 mobilityDrones.sensor1.udp passedUpPk:vector(count) ETV
attr interpolationmode none
attr source packetSentToUpper
attr title "packets passed up, vector(count)"
vector 144 mobilityDrones.drones[3].app[0] packetSent:vector(packetBytes) ETV
attr interpolationmode none
attr source packetSent
attr title "packets sent, vector(packetBytes)"
vector 145 mobilityDrones.drones[3].udp packetSent:vector(packetBytes) ETV
attr interpolationmode none
attr source packetSent
attr title "packets sent, vector(packetBytes)"
vector 146 mobilityDrones.drones[3].lo[0].lo rcvdPkFromHl:vector(packetBytes) ETV
attr interpolationmode none
attr source packetReceivedFromUpper
attr title "packets received from higher layer, vector(packetBytes)"
vector 147 mobilityDrones.drones[3].lo[0].lo passedUpPk:vector(packetBytes) ETV
attr interpolationmode none
attr source packetSentToUpper
attr title "packets passed to higher layer, vector(packetBytes)"
vector 148 mobilityDrones.drones[3].wlan[0].mac packetReceivedFromUpper:vector(packetBytes) ETV
attr interpolationmode none
attr title "packets received from upper layer, vector(packetBytes)"
vector 149 mobilityDrones.drones[3].wlan[0].mac.dcf.channelAccess.pendingQueue packetPushed:vector(packetBytes) ETV
attr interpolationmode none
attr title "packet pushed, vector(packetBytes)"
vector 150 mobilityDrones.drones[3].wlan[0].mac.dcf.channelAccess.pendingQueue queueLength:vector ETV
attr interpolationmode sample-hold
attr source "count(packetPushed) - count(packetPopped) - count(packetRemoved) - count(packetDropped)"
attr title "queue length, vector"
vector 151 mobilityDrones.drones[3].wlan[0].mac.dcf.channelAccess.contention backoffPeriodGenerated:vector ETV
attr interpolationmode none
attr title "backoff periods, vector"
vector 152 mobilityDrones.drones[3].wlan[0].mac.dcf.channelAccess.contention backoffActive:vector ETV
attr interpolationmode sample-hold
attr source count(backoffStarted)-count(backoffStopped)
attr title "backoff active, vector"
vector 153 mobilityDrones.drones[3].udp passedUpPk:vector(count) ETV
attr interpolationmode none
attr source packetSentToUpper
attr title "packets passed up, vector(count)"
vector 154 mobilityDrones.drones[3].wlan[0].mac.dcf.channelAccess.pendingQueue packetPopped:vector(packetBytes) ETV
attr interpolationmode none
attr title "packet popped, vector(packetBytes)"
vector 155 mobilityDrones.drones[3].wlan[0].mac.dcf.channelAccess.pendingQueue queueingTime:vector ETV
attr interpolationmode none
attr source queueingTime(packetPopped)
attr title "queueing times, vector"
attr unit s
vector 156 mobilityDrones.drones[3].wlan[0].mac.dcf.channelAccess.inProgressFrames queueLength:vector ETV
attr interpolationmode sample-hold
attr source "count(packetEnqueued) - count(packetDequeued)"
attr title "queue length, vector"
vector 157 mobilityDrones.drones[3].wlan[0].mac.dcf datarateSelected:vector ETV
attr interpolationmode none
attr title "datarates selected, vector"
vector 158 mobilityDrones.drones[3].wlan[0].mac packetSentToLower:vector(packetBytes) ETV
attr interpolationmode none
attr title "packets sent to lower layer, vector(packetBytes)"
vector 159 mobilityDrones.drones[3].wlan[0].mac.dcf frameSequenceActive:vector ETV
attr interpolationmode sample-hold
attr source count(frameSequenceStarted)-count(frameSequenceFinished)
attr title "frame sequence active, vector"
vector 160 mobilityDrones.drones[3].wlan[0].radio transmissionState:vector ETV
attr interpolationmode sample-hold
attr source transmissionStateChanged
attr title "Radio transmission state, vector"
vector 161 mobilityDrones.drones[3].wlan[0].mac.dcf packetSentToPeer:vector(packetBytes) ETV
attr interpolationmode none
attr title "packets sent, vector(packetBytes)"
vector 162 mobilityDrones.drones[3].wlan[0].mac.dcf packetSentToPeerMulticast:vector(packetBytes) ETV
attr interpolationmode none
attr source ieee80211Multicast(packetSentToPeer)
attr title "packets sent: multicast, vector(packetBytes)"
vector 163 mobilityDrones.drones[3].wlan[0].mac.dcf packetSentToPeerWithoutRetry:vector(packetBytes) ETV
attr interpolationmode none
attr source ieee80211NotRetry(packetSentToPeer)
attr title "packets sent: without retry, vector(packetBytes)"
vector 164 mobilityDrones.drones[3].wlan[0].mac.dcf.channelAccess.inProgressFrames queueingTime:vector ETV
attr interpolationmode none
attr source queueingTime(packetDequeued)
attr title "queueing times, vector"
vector 165 mobilityDrones.drones[3].app[1] packetReceived:vector(packetBytes) ETV
attr interpolationmode none
attr source packetReceived
attr title "packets received, vector(packetBytes)"
vector 166 mobilityDrones.drones[3].app[1] throughput:vector ETV
attr source throughput(packetReceived)
attr title "throughput, vector"
attr unit bps
vector 167 mobilityDrones.drones[3].app[1] endToEndDelay:vector ETV
attr interpolationmode none
attr source dataAge(packetReceived)
attr title "end-to-end delay, vector"
attr unit ms
vector 168 mobilityDrones.drones[3].wlan[0].mac.dcf packetSentToPeerBroadcast:vector(packetBytes) ETV
attr interpolationmode none
attr source ieee80211Broadcast(packetSentToPeer)
attr title "packets sent: broadcast , vector(packetBytes)"
vector 169 mobilityDrones.drones[3].wlan[1].radio transmissionState:vector ETV
attr interpolationmode sample-hold
attr source transmissionStateChanged
attr title "Radio transmission state, vector"
0	0	0	0
0	0	0	0
0	0	0	0
0	0	0	0
0	0	0	0.002
0	109	0.073685355465	0
0	109	0.073685355465	0
0	109	0.073685355465	0.002
0	110	0.073685355465	0
0	110	0.073685355465	0.1
0	120	0.073739355465	0.002
0	120	0.073739355465	0.002
0	122	0.073739355465	0
0	122	0.073739355465	0.002
0	122	0.073739355465	0.002
0	135	0.074153355465	0
0	135	0.074153355465	0
0	135	0.074153355465	0.002
0	136	0.074153355465	0
0	136	0.074153355465	0.1
0	146	0.074207355465	0.002
0	146	0.074207355465	0.002
0	148	0.074207355465	0
0	148	0.074207355465	0.002
0	148	0.074207355465	0.002
0	161	0.076601355465	0
0	161	0.076601355465	0
0	161	0.076601355465	0.002
0	162	0.076601355465	0
0	162	0.076601355465	0.1
0	172	0.076655355465	0.002
0	172	0.076655355465	0.002
0	174	0.076655355465	0
0	174	0.076655355465	0.002
0	174	0.076655355465	0.002
0	187	0.080689355465	0
0	187	0.080689355465	0
0	187	0.080689355465	0.002
0	188	0.080689355465	0
0	188	0.080689355465	0.1
0	198	0.080743355465	0.002
0	198	0.080743355465	0.002
0	200	0.080743355465	0
0	200	0.080743355465	0.002
0	200	0.080743355465	0.002
0	217	0.091037355465	0
0	217	0.091037355465	0
0	217	0.091037355465	0.002
0	218	0.091037355465	0
0	218	0.091037355465	0.1
0	228	0.091091355465	0.002
0	228	0.091091355465	0.002
0	230	0.091091355465	0
0	230	0.091091355465	0.002
0	230	0.091091355465	0.002
0	248	0.108125355465	0
0	248	0.108125355465	0
0	248	0.108125355465	0.002
0	249	0.108125355465	0
0	249	0.108125355465	0.1
0	259	0.108179355465	0.002
0	259	0.108179355465	0.002
0	261	0.108179355465	0
0	261	0.108179355465	0.002
0	261	0.108179355465	0.002
0	274	0.116893355465	0
0	274	0.116893355465	0
0	274	0.116893355465	0.002
0	275	0.116893355465	0
0	275	0.116893355465	0.1
0	285	0.116947355465	0.002
0	285	0.116947355465	0.002
0	287	0.116947355465	0
0	287	0.116947355465	0.002
0	287	0.116947355465	0.002
0	638	3.073685355465	0
0	638	3.073685355465	0
0	638	3.073685355465	0.002
0	639	3.073685355465	0
0	639	3.073685355465	0.1
0	649	3.073739355465	0.002
0	649	3.073739355465	0.002
0	651	3.073739355465	0
0	651	3.073739355465	0.002
0	651	3.073739355465	0.002
0	664	3.074473355465	0
0	664	3.074473355465	0
0	664	3.074473355465	0.002
0	665	3.074473355465	0
0	665	3.074473355465	0.1
0	675	3.074527355465	0.002
0	675	3.074527355465	0.002
0	677	3.074527355465	0
0	677	3.074527355465	0.002
0	677	3.074527355465	0.002
0	690	3.075921355465	0
0	690	3.075921355465	0
0	690	3.075921355465	0.002
0	691	3.075921355465	0
0	691	3.075921355465	0.1
0	701	3.075975355465	0.002
0	701	3.075975355465	0.002
0	703	3.075975355465	0
0	703	3.075975355465	0.002
0	703	3.075975355465	0.002
0	716	3.076249355465	0
0	716	3.076249355465	0
0	716	3.076249355465	0.002
0	717	3.076249355465	0
0	717	3.076249355465	0.1
0	727	3.076303355465	0.002
0	727	3.076303355465	0.002
0	729	3.076303355465	0
0	729	3.076303355465	0.002
0	729	3.076303355465	0.002
0	742	3.080097355465	0
0	742	3.080097355465	0
0	742	3.080097355465	0.002
0	743	3.080097355465	0
0	743	3.080097355465	0.1
0	753	3.080151355465	0.002
0	753	3.080151355465	0.002
0	755	3.080151355465	0
0	755	3.080151355465	0.002
0	755	3.080151355465	0.002
0	773	3.093025355465	0
0	773	3.093025355465	0
0	773	3.093025355465	0.002
0	774	3.093025355465	0
0	774	3.093025355465	0.1
0	784	3.093079355465	0.002
0	784	3.093079355465	0.002
0	786	3.093079355465	0
0	786	3.093079355465	0.002
0	786	3.093079355465	0.002
0	801	3.104053355465	0
0	801	3.104053355465	0
0	801	3.104053355465	0.002
0	802	3.104053355465	0
0	802	3.104053355465	0.1
0	812	3.104107355465	0.002
0	812	3.104107355465	0.002
0	814	3.104107355465	0
0	814	3.104107355465	0.002
0	814	3.104107355465	0.002
0	1167	6.073685355465	0
0	1167	6.073685355465	0
0	1167	6.073685355465	0.002
0	1168	6.073685355465	0
0	1168	6.073685355465	0.1
0	1178	6.073739355465	0.002
0	1178	6.073739355465	0.002
0	1180	6.073739355465	0
0	1180	6.073739355465	0.002
0	1180	6.073739355465	0.002
0	1193	6.076393355465	0
0	1193	6.076393355465	0
0	1193	6.076393355465	0.002
0	1194	6.076393355465	0
0	1194	6.076393355465	0.1
0	1204	6.076447355465	0.002
0	1204	6.076447355465	0.002
0	1206	6.076447355465	0
0	1206	6.076447355465	0.002
0	1206	6.076447355465	0.002
0	1219	6.079101355465	0
0	1219	6.079101355465	0
0	1219	6.079101355465	0.002
0	1220	6.079101355465	0
0	1220	6.079101355465	0.1
0	1230	6.079155355465	0.002
0	1230	6.079155355465	0.002
0	1232	6.079155355465	0
0	1232	6.079155355465	0.002
0	1232	6.079155355465	0.002
0	1248	6.097889355465	0
0	1248	6.097889355465	0
0	1248	6.097889355465	0.002
0	1249	6.097889355465	0
0	1249	6.097889355465	0.1
0	1259	6.097943355465	0.002
0	1259	6.097943355465	0.002
0	1261	6.097943355465	0
0	1261	6.097943355465	0.002
0	1261	6.097943355465	0.002
0	1274	6.099097355465	0
0	1274	6.099097355465	0
0	1274	6.099097355465	0.002
0	1275	6.099097355465	0
0	1275	6.099097355465	0.1
0	1285	6.099151355465	0.002
0	1285	6.099151355465	0.002
0	1287	6.099151355465	0
0	1287	6.099151355465	0.002
0	1287	6.099151355465	0.002
0	1303	6.117265355465	0
0	1303	6.117265355465	0
0	1303	6.117265355465	0.002
0	1304	6.117265355465	0
0	1304	6.117265355465	0.1
0	1314	6.117319355465	0.002
0	1314	6.117319355465	0.002
0	1316	6.117319355465	0
0	1316	6.117319355465	0.002
0	1316	6.117319355465	0.002
0	1330	6.128413355465	0
0	1330	6.128413355465	0
0	1330	6.128413355465	0.002
0	1331	6.128413355465	0
0	1331	6.128413355465	0.1
0	1341	6.128467355465	0.002
0	1341	6.128467355465	0.002
0	1343	6.128467355465	0
0	1343	6.128467355465	0.002
0	1343	6.128467355465	0.002
0	1693	9.073685355465	0
0	1693	9.073685355465	0
0	1693	9.073685355465	0.002
0	1694	9.073685355465	0
0	1694	9.073685355465	0.1
0	1704	9.073739355465	0.002
0	1704	9.073739355465	0.002
0	1706	9.073739355465	0
0	1706	9.073739355465	0.002
0	1706	9.073739355465	0.002
0	1719	9.080253355465	0
0	1719	9.080253355465	0
0	1719	9.080253355465	0.002
0	1720	9.080253355465	0
0	1720	9.080253355465	0.1
0	1730	9.080307355465	0.002
0	1730	9.080307355465	0.002
0	1732	9.080307355465	0
0	1732	9.080307355465	0.002
0	1732	9.080307355465	0.002
0	1748	9.100381355465	0
0	1748	9.100381355465	0
0	1748	9.100381355465	0.002
0	1749	9.100381355465	0
0	1749	9.100381355465	0.1
0	1759	9.100435355465	0.002
0	1759	9.100435355465	0.002
0	1761	9.100435355465	0
0	1761	9.100435355465	0.002
0	1761	9.100435355465	0.002
0	1775	9.119269355465	0
0	1775	9.119269355465	0
0	1775	9.119269355465	0.002
0	1776	9.119269355465	0
0	1776	9.119269355465	0.1
0	1786	9.119323355465	0.002
0	1786	9.119323355465	0.002
0	1788	9.119323355465	0
0	1788	9.119323355465	0.002
0	1788	9.119323355465	0.002
0	1801	9.120557355465	0
0	1801	9.120557355465	0
0	1801	9.120557355465	0.002
0	1802	9.120557355465	0
0	1802	9.120557355465	0.1
0	1812	9.120611355465	0.002
0	1812	9.120611355465	0.002
0	1814	9.120611355465	0
0	1814	9.120611355465	0.002
0	1814	9.120611355465	0.002
0	1827	9.126525355465	0
0	1827	9.126525355465	0
0	1827	9.126525355465	0.002
0	1828	9.126525355465	0
0	1828	9.126525355465	0.1
0	1838	9.126579355465	0.002
0	1838	9.126579355465	0.002
0	1840	9.126579355465	0
0	1840	9.126579355465	0.002
0	1840	9.126579355465	0.002
0	1856	9.144073355465	0
0	1856	9.144073355465	0
0	1856	9.144073355465	0.002
0	1857	9.144073355465	0
0	1857	9.144073355465	0.1
0	1867	9.144127355465	0.002
0	1867	9.144127355465	0.002
0	1869	9.144127355465	0
0	1869	9.144127355465	0.002
0	1869	9.144127355465	0.002
0	2220	12.073685355465	0
0	2220	12.073685355465	0
0	2220	12.073685355465	0.002
0	2221	12.073685355465	0
0	2221	12.073685355465	0.1
0	2231	12.073739355465	0.002
0	2231	12.073739355465	0.002
0	2233	12.073739355465	0
0	2233	12.073739355465	0.002
0	2233	12.073739355465	0.002
0	2247	12.092593355465	0
0	2247	12.092593355465	0
0	2247	12.092593355465	0.002
0	2248	12.092593355465	0
0	2248	12.092593355465	0.1
0	2258	12.092647355465	0.002
0	2258	12.092647355465	0.002
0	2260	12.092647355465	0
0	2260	12.092647355465	0.002
0	2260	12.092647355465	0.002
0	2273	12.094421355465	0
0	2273	12.094421355465	0
0	2273	12.094421355465	0.002
0	2274	12.094421355465	0
0	2274	12.094421355465	0.1
0	2284	12.094475355465	0.002
0	2284	12.094475355465	0.002
0	2286	12.094475355465	0
0	2286	12.094475355465	0.002
0	2286	12.094475355465	0.002
0	2299	12.098629355465	0
0	2299	12.098629355465	0
0	2299	12.098629355465	0.002
0	2300	12.098629355465	0
0	2300	12.098629355465	0.1
0	2310	12.098683355465	0.002
0	2310	12.098683355465	0.002
0	2312	12.098683355465	0
0	2312	12.098683355465	0.002
0	2312	12.098683355465	0.002
0	2328	12.105257355465	0
0	2328	12.105257355465	0
0	2328	12.105257355465	0.002
0	2329	12.105257355465	0
0	2329	12.105257355465	0.1
0	2339	12.105311355465	0.002
0	2339	12.105311355465	0.002
0	2341	12.105311355465	0
0	2341	12.105311355465	0.002
0	2341	12.105311355465	0.002
0	2356	12.120885355465	0
0	2356	12.120885355465	0
0	2356	12.120885355465	0.002
0	2357	12.120885355465	0
0	2357	12.120885355465	0.1
0	2367	12.120939355465	0.002
0	2367	12.120939355465	0.002
0	2369	12.120939355465	0
0	2369	12.120939355465	0.002
0	2369	12.120939355465	0.002
0	2383	12.140313355465	0
0	2383	12.140313355465	0
0	2383	12.140313355465	0.002
0	2384	12.140313355465	0
0	2384	12.140313355465	0.1
0	2394	12.140367355465	0.002
0	2394	12.140367355465	0.002
0	2396	12.140367355465	0
0	2396	12.140367355465	0.002
0	2396	12.140367355465	0.002
0	2729	15.073685355465	0
0	2729	15.073685355465	0
0	2729	15.073685355465	0.002
0	2730	15.073685355465	0
0	2730	15.073685355465	0.1
0	2740	15.073739355465	0.002
0	2740	15.073739355465	0.002
0	2742	15.073739355465	0
0	2742	15.073739355465	0.002
0	2742	15.073739355465	0.002
0	2755	15.078373355465	0
0	2755	15.078373355465	0
0	2755	15.078373355465	0.002
0	2756	15.078373355465	0
0	2756	15.078373355465	0.1
0	2766	15.078427355465	0.002
0	2766	15.078427355465	0.002
0	2768	15.078427355465	0
0	2768	15.078427355465	0.002
0	2768	15.078427355465	0.002
0	2783	15.097601355465	0
0	2783	15.097601355465	0
0	2783	15.097601355465	0.002
0	2784	15.097601355465	0
0	2784	15.097601355465	0.1
0	2794	15.097655355465	0.002
0	2794	15.097655355465	0.002
0	2796	15.097655355465	0
0	2796	15.097655355465	0.002
0	2796	15.097655355465	0.002
0	2811	15.113569355465	0
0	2811	15.113569355465	0
0	2811	15.113569355465	0.002
0	2812	15.113569355465	0
0	2812	15.113569355465	0.1
0	2822	15.113623355465	0.002
0	2822	15.113623355465	0.002
0	2824	15.113623355465	0
0	2824	15.113623355465	0.002
0	2824	15.113623355465	0.002
0	2838	15.128097355465	0
0	2838	15.128097355465	0
0	2838	15.128097355465	0.002
0	2839	15.128097355465	0
0	2839	15.128097355465	0.1
0	2849	15.128151355465	0.002
0	2849	15.128151355465	0.002
0	2851	15.128151355465	0
0	2851	15.128151355465	0.002
0	2851	15.128151355465	0.002
0	2865	15.146425355465	0
0	2865	15.146425355465	0
0	2865	15.146425355465	0.002
0	2866	15.146425355465	0
0	2866	15.146425355465	0.1
0	2876	15.146479355465	0.002
0	2876	15.146479355465	0.002
0	2878	15.146479355465	0
0	2878	15.146479355465	0.002
0	2878	15.146479355465	0.002
0	2891	15.154033355465	0
0	2891	15.154033355465	0
0	2891	15.154033355465	0.002
0	2892	15.154033355465	0
0	2892	15.154033355465	0.1
0	2902	15.154087355465	0.002
0	2902	15.154087355465	0.002
0	2904	15.154087355465	0
0	2904	15.154087355465	0.002
0	2904	15.154087355465	0.002
0	3229	18.073685355465	0
0	3229	18.073685355465	0
0	3229	18.073685355465	0.002
0	3230	18.073685355465	0
0	3230	18.073685355465	0.1
0	3240	18.073739355465	0.002
0	3240	18.073739355465	0.002
0	3242	18.073739355465	0
0	3242	18.073739355465	0.002
0	3242	18.073739355465	0.002
0	3256	18.091453355465	0
0	3256	18.091453355465	0
0	3256	18.091453355465	0.002
0	3257	18.091453355465	0
0	3257	18.091453355465	0.1
0	3267	18.091507355465	0.002
0	3267	18.091507355465	0.002
0	3269	18.091507355465	0
0	3269	18.091507355465	0.002
0	3269	18.091507355465	0.002
0	3284	18.105401355465	0
0	3284	18.105401355465	0
0	3284	18.105401355465	0.002
0	3285	18.105401355465	0
0	3285	18.105401355465	0.1
0	3295	18.105455355465	0.002
0	3295	18.105455355465	0.002
0	3297	18.105455355465	0
0	3297	18.105455355465	0.002
0	3297	18.105455355465	0.002
0	3310	18.111389355465	0
0	3310	18.111389355465	0
0	3310	18.111389355465	0.002
0	3311	18.111389355465	0
0	3311	18.111389355465	0.1
0	3321	18.111443355465	0.002
0	3321	18.111443355465	0.002
0	3323	18.111443355465	0
0	3323	18.111443355465	0.002
0	3323	18.111443355465	0.002
0	3338	18.130137355465	0
0	3338	18.130137355465	0
0	3338	18.130137355465	0.002
0	3339	18.130137355465	0
0	3339	18.130137355465	0.1
0	3349	18.130191355465	0.002
0	3349	18.130191355465	0.002
0	3351	18.130191355465	0
0	3351	18.130191355465	0.002
0	3351	18.130191355465	0.002
0	3365	18.146605355465	0
0	3365	18.146605355465	0
0	3365	18.146605355465	0.002
0	3366	18.146605355465	0
0	3366	18.146605355465	0.1
0	3376	18.146659355465	0.002
0	3376	18.146659355465	0.002
0	3378	18.146659355465	0
0	3378	18.146659355465	0.002
0	3378	18.146659355465	0.002
0	3392	18.163973355465	0
0	3392	18.163973355465	0
0	3392	18.163973355465	0.002
0	3393	18.163973355465	0
0	3393	18.163973355465	0.1
0	3403	18.164027355465	0.002
0	3403	18.164027355465	0.002
0	3405	18.164027355465	0
0	3405	18.164027355465	0.002
0	3405	18.164027355465	0.002
0	3729	21.073685355465	0
0	3729	21.073685355465	0
0	3729	21.073685355465	0.002
0	3730	21.073685355465	0
0	3730	21.073685355465	0.1
0	3740	21.073739355465	0.002
0	3740	21.073739355465	0.002
0	3742	21.073739355465	0
0	3742	21.073739355465	0.002
0	3742	21.073739355465	0.002
0	3755	21.081233355465	0
0	3755	21.081233355465	0
0	3755	21.081233355465	0.002
0	3756	21.081233355465	0
0	3756	21.081233355465	0.1
0	3766	21.081287355465	0.002
0	3766	21.081287355465	0.002
0	3768	21.081287355465	0
0	3768	21.081287355465	0.002
0	3768	21.081287355465	0.002
0	3783	21.092481355465	0
0	3783	21.092481355465	0
0	3783	21.092481355465	0.002
0	3784	21.092481355465	0
0	3784	21.092481355465	0.1
0	3794	21.092535355465	0.002
0	3794	21.092535355465	0.002
0	3796	21.092535355465	0
0	3796	21.092535355465	0.002
0	3796	21.092535355465	0.002
0	3811	21.111709355465	0
0	3811	21.111709355465	0
0	3811	21.111709355465	0.002
0	3812	21.111709355465	0
0	3812	21.111709355465	0.1
0	3822	21.111763355465	0.002
0	3822	21.111763355465	0.002
0	3824	21.111763355465	0
0	3824	21.111763355465	0.002
0	3824	21.111763355465	0.002
0	3837	21.119517355465	0
0	3837	21.119517355465	0
0	3837	21.119517355465	0.002
0	3838	21.119517355465	0
0	3838	21.119517355465	0.1
0	3848	21.119571355465	0.002
0	3848	21.119571355465	0.002
0	3850	21.119571355465	0
0	3850	21.119571355465	0.002
0	3850	21.119571355465	0.002
0	3863	21.120125355465	0
0	3863	21.120125355465	0
0	3863	21.120125355465	0.002
0	3864	21.120125355465	0
0	3864	21.120125355465	0.1
0	3874	21.120179355465	0.002
0	3874	21.120179355465	0.002
0	3876	21.120179355465	0
0	3876	21.120179355465	0.002
0	3876	21.120179355465	0.002
0	3892	21.134253355465	0
0	3892	21.134253355465	0
0	3892	21.134253355465	0.002
0	3893	21.134253355465	0
0	3893	21.134253355465	0.1
0	3903	21.134307355465	0.002
0	3903	21.134307355465	0.002
0	3905	21.134307355465	0
0	3905	21.134307355465	0.002
0	3905	21.134307355465	0.002
0	4229	24.073685355465	0
0	4229	24.073685355465	0
0	4229	24.073685355465	0.002
0	4230	24.073685355465	0
0	4230	24.073685355465	0.1
0	4240	24.073739355465	0.002
0	4240	24.073739355465	0.002
0	4242	24.073739355465	0
0	4242	24.073739355465	0.002
0	4242	24.073739355465	0.002
0	4255	24.076793355465	0
0	4255	24.076793355465	0
0	4255	24.076793355465	0.002
0	4256	24.076793355465	0
0	4256	24.076793355465	0.1
0	4266	24.076847355465	0.002
0	4266	24.076847355465	0.002
0	4268	24.076847355465	0
0	4268	24.076847355465	0.002
0	4268	24.076847355465	0.002
0	4281	24.081121355465	0
0	4281	24.081121355465	0
0	4281	24.081121355465	0.002
0	4282	24.081121355465	0
0	4282	24.081121355465	0.1
0	4292	24.081175355465	0.002
0	4292	24.081175355465	0.002
0	4294	24.081175355465	0
0	4294	24.081175355465	0.002
0	4294	24.081175355465	0.002
0	4310	24.092509355465	0
0	4310	24.092509355465	0
0	4310	24.092509355465	0.002
0	4311	24.092509355465	0
0	4311	24.092509355465	0.1
0	4321	24.092563355465	0.002
0	4321	24.092563355465	0.002
0	4323	24.092563355465	0
0	4323	24.092563355465	0.002
0	4323	24.092563355465	0.002
0	4337	24.100877355465	0
0	4337	24.100877355465	0
0	4337	24.100877355465	0.002
0	4338	24.100877355465	0
0	4338	24.100877355465	0.1
0	4348	24.100931355465	0.002
0	4348	24.100931355465	0.002
0	4350	24.100931355465	0
0	4350	24.100931355465	0.002
0	4350	24.100931355465	0.002
0	4365	24.116665355465	0
0	4365	24.116665355465	0
0	4365	24.116665355465	0.002
0	4366	24.116665355465	0
0	4366	24.116665355465	0.1
0	4376	24.116719355465	0.002
0	4376	24.116719355465	0.002
0	4378	24.116719355465	0
0	4378	24.116719355465	0.002
0	4378	24.116719355465	0.002
0	4391	24.117633355465	0
0	4391	24.117633355465	0
0	4391	24.117633355465	0.002
0	4392	24.117633355465	0
0	4392	24.117633355465	0.1
0	4402	24.117687355465	0.002
0	4402	24.117687355465	0.002
0	4404	24.117687355465	0
0	4404	24.117687355465	0.002
0	4404	24.117687355465	0.002
0	4729	27.073685355465	0
0	4729	27.073685355465	0
0	4729	27.073685355465	0.002
0	4730	27.073685355465	0
0	4730	27.073685355465	0.1
0	4740	27.073739355465	0.002
0	4740	27.073739355465	0.002
0	4742	27.073739355465	0
0	4742	27.073739355465	0.002
0	4742	27.073739355465	0.002
0	4755	27.074473355465	0
0	4755	27.074473355465	0
0	4755	27.074473355465	0.002
0	4756	27.074473355465	0
0	4756	27.074473355465	0.1
0	4766	27.074527355465	0.002
0	4766	27.074527355465	0.002
0	4768	27.074527355465	0
0	4768	27.074527355465	0.002
0	4768	27.074527355465	0.002
0	4781	27.078261355465	0
0	4781	27.078261355465	0
0	4781	27.078261355465	0.002
0	4782	27.078261355465	0
0	4782	27.078261355465	0.1
0	4792	27.078315355465	0.002
0	4792	27.078315355465	0.002
0	4794	27.078315355465	0
0	4794	27.078315355465	0.002
0	4794	27.078315355465	0.002
0	4807	27.080969355465	0
0	4807	27.080969355465	0
0	4807	27.080969355465	0.002
0	4808	27.080969355465	0
0	4808	27.080969355465	0.1
0	4818	27.081023355465	0.002
0	4818	27.081023355465	0.002
0	4820	27.081023355465	0
0	4820	27.081023355465	0.002
0	4820	27.081023355465	0.002
0	4837	27.097237355465	0
0	4837	27.097237355465	0
0	4837	27.097237355465	0.002
0	4838	27.097237355465	0
0	4838	27.097237355465	0.1
0	4848	27.097291355465	0.002
0	4848	27.097291355465	0.002
0	4850	27.097291355465	0
0	4850	27.097291355465	0.002
0	4850	27.097291355465	0.002
0	4864	27.102885355465	0
0	4864	27.102885355465	0
0	4864	27.102885355465	0.002
0	4865	27.102885355465	0
0	4865	27.102885355465	0.1
0	4875	27.102939355465	0.002
0	4875	27.102939355465	0.002
0	4877	27.102939355465	0
0	4877	27.102939355465	0.002
0	4877	27.102939355465	0.002
0	4890	27.106513355465	0
0	4890	27.106513355465	0
0	4890	27.106513355465	0.002
0	4891	27.106513355465	0
0	4891	27.106513355465	0.1
0	4901	27.106567355465	0.002
0	4901	27.106567355465	0.002
0	4903	27.106567355465	0
0	4903	27.106567355465	0.002
0	4903	27.106567355465	0.002
0	5230	30.073685355465	0
0	5230	30.073685355465	0
0	5230	30.073685355465	0.002
0	5231	30.073685355465	0
0	5231	30.073685355465	0.1
0	5241	30.073739355465	0.002
0	5241	30.073739355465	0.002
0	5243	30.073739355465	0
0	5243	30.073739355465	0.002
0	5243	30.073739355465	0.002
0	5256	30.075713355465	0
0	5256	30.075713355465	0
0	5256	30.075713355465	0.002
0	5257	30.075713355465	0
0	5257	30.075713355465	0.1
0	5267	30.075767355465	0.002
0	5267	30.075767355465	0.002
0	5269	30.075767355465	0
0	5269	30.075767355465	0.002
0	5269	30.075767355465	0.002
0	5282	30.080381355465	0
0	5282	30.080381355465	0
0	5282	30.080381355465	0.002
0	5283	30.080381355465	0
0	5283	30.080381355465	0.1
0	5293	30.080435355465	0.002
0	5293	30.080435355465	0.002
0	5295	30.080435355465	0
0	5295	30.080435355465	0.002
0	5295	30.080435355465	0.002
0	5311	30.098029355465	0
0	5311	30.098029355465	0
0	5311	30.098029355465	0.002
0	5312	30.098029355465	0
0	5312	30.098029355465	0.1
0	5322	30.098083355465	0.002
0	5322	30.098083355465	0.002
0	5324	30.098083355465	0
0	5324	30.098083355465	0.002
0	5324	30.098083355465	0.002
0	5338	30.103557355465	0
0	5338	30.103557355465	0
0	5338	30.103557355465	0.002
0	5339	30.103557355465	0
0	5339	30.103557355465	0.1
0	5349	30.103611355465	0.002
0	5349	30.103611355465	0.002
0	5351	30.103611355465	0
0	5351	30.103611355465	0.002
0	5351	30.103611355465	0.002
0	5366	30.121305355465	0
0	5366	30.121305355465	0
0	5366	30.121305355465	0.002
0	5367	30.121305355465	0
0	5367	30.121305355465	0.1
0	5377	30.121359355465	0.002
0	5377	30.121359355465	0.002
0	5379	30.121359355465	0
0	5379	30.121359355465	0.002
0	5379	30.121359355465	0.002
0	5392	30.127373355465	0
0	5392	30.127373355465	0
0	5392	30.127373355465	0.002
0	5393	30.127373355465	0
0	5393	30.127373355465	0.1
0	5403	30.127427355465	0.002
0	5403	30.127427355465	0.002
0	5405	30.127427355465	0
0	5405	30.127427355465	0.002
0	5405	30.127427355465	0.002
0	5729	33.073685355465	0
0	5729	33.073685355465	0
0	5729	33.073685355465	0.002
0	5730	33.073685355465	0
0	5730	33.073685355465	0.1
0	5740	33.073739355465	0.002
0	5740	33.073739355465	0.002
0	5742	33.073739355465	0
0	5742	33.073739355465	0.002
0	5742	33.073739355465	0.002
0	5756	33.089473355465	0
0	5756	33.089473355465	0
0	5756	33.089473355465	0.002
0	5757	33.089473355465	0
0	5757	33.089473355465	0.1
0	5767	33.089527355465	0.002
0	5767	33.089527355465	0.002
0	5769	33.089527355465	0
0	5769	33.089527355465	0.002
0	5769	33.089527355465	0.002
0	5784	33.106901355465	0
0	5784	33.106901355465	0
0	5784	33.106901355465	0.002
0	5785	33.106901355465	0
0	5785	33.106901355465	0.1
0	5795	33.106955355465	0.002
0	5795	33.106955355465	0.002
0	5797	33.106955355465	0
0	5797	33.106955355465	0.002
0	5797	33.106955355465	0.002
0	5810	33.112249355465	0
0	5810	33.112249355465	0
0	5810	33.112249355465	0.002
0	5811	33.112249355465	0
0	5811	33.112249355465	0.1
0	5821	33.112303355465	0.002
0	5821	33.112303355465	0.002
0	5823	33.112303355465	0
0	5823	33.112303355465	0.002
0	5823	33.112303355465	0.002
0	5838	33.131657355465	0
0	5838	33.131657355465	0
0	5838	33.131657355465	0.002
0	5839	33.131657355465	0
0	5839	33.131657355465	0.1
0	5849	33.131711355465	0.002
0	5849	33.131711355465	0.002
0	5851	33.131711355465	0
0	5851	33.131711355465	0.002
0	5851	33.131711355465	0.002
0	5865	33.146785355465	0
0	5865	33.146785355465	0
0	5865	33.146785355465	0.002
0	5866	33.146785355465	0
0	5866	33.146785355465	0.1
0	5876	33.146839355465	0.002
0	5876	33.146839355465	0.002
0	5878	33.146839355465	0
0	5878	33.146839355465	0.002
0	5878	33.146839355465	0.002
0	5891	33.149713355465	0
0	5891	33.149713355465	0
0	5891	33.149713355465	0.002
0	5892	33.149713355465	0
0	5892	33.149713355465	0.1
0	5902	33.149767355465	0.002
0	5902	33.149767355465	0.002
0	5904	33.149767355465	0
0	5904	33.149767355465	0.002
0	5904	33.149767355465	0.002
0	6228	36.073685355465	0
0	6228	36.073685355465	0
0	6228	36.073685355465	0.002
0	6229	36.073685355465	0
0	6229	36.073685355465	0.1
0	6239	36.073739355465	0.002
0	6239	36.073739355465	0.002
0	6241	36.073739355465	0
0	6241	36.073739355465	0.002
0	6241	36.073739355465	0.002
0	6254	36.076033355465	0
0	6254	36.076033355465	0
0	6254	36.076033355465	0.002
0	6255	36.076033355465	0
0	6255	36.076033355465	0.1
0	6265	36.076087355465	0.002
0	6265	36.076087355465	0.002
0	6267	36.076087355465	0
0	6267	36.076087355465	0.002
0	6267	36.076087355465	0.002
0	6280	36.076681355465	0
0	6280	36.076681355465	0
0	6280	36.076681355465	0.002
0	6281	36.076681355465	0
0	6281	36.076681355465	0.1
0	6291	36.076735355465	0.002
0	6291	36.076735355465	0.002
0	6293	36.076735355465	0
0	6293	36.076735355465	0.002
0	6293	36.076735355465	0.002
0	6308	36.086109355465	0
0	6308	36.086109355465	0
0	6308	36.086109355465	0.002
0	6309	36.086109355465	0
0	6309	36.086109355465	0.1
0	6319	36.086163355465	0.002
0	6319	36.086163355465	0.002
0	6321	36.086163355465	0
0	6321	36.086163355465	0.002
0	6321	36.086163355465	0.002
0	6337	36.105377355465	0
0	6337	36.105377355465	0
0	6337	36.105377355465	0.002
0	6338	36.105377355465	0
0	6338	36.105377355465	0.1
0	6348	36.105431355465	0.002
0	6348	36.105431355465	0.002
0	6350	36.105431355465	0
0	6350	36.105431355465	0.002
0	6350	36.105431355465	0.002
0	6364	36.123305355465	0
0	6364	36.123305355465	0
0	6364	36.123305355465	0.002
0	6365	36.123305355465	0
0	6365	36.123305355465	0.1
0	6375	36.123359355465	0.002
0	6375	36.123359355465	0.002
0	6377	36.123359355465	0
0	6377	36.123359355465	0.002
0	6377	36.123359355465	0.002
0	6391	36.141173355465	0
0	6391	36.141173355465	0
0	6391	36.141173355465	0.002
0	6392	36.141173355465	0
0	6392	36.141173355465	0.1
0	6402	36.141227355465	0.002
0	6402	36.141227355465	0.002
0	6404	36.141227355465	0
0	6404	36.141227355465	0.002
0	6404	36.141227355465	0.002
0	6764	39.073685355465	0
0	6764	39.073685355465	0
0	6764	39.073685355465	0.002
0	6765	39.073685355465	0
0	6765	39.073685355465	0.1
0	6775	39.073739355465	0.002
0	6775	39.073739355465	0.002
0	6777	39.073739355465	0
0	6777	39.073739355465	0.002
0	6777	39.073739355465	0.002
0	6790	39.079573355465	0
0	6790	39.079573355465	0
0	6790	39.079573355465	0.002
0	6791	39.079573355465	0
0	6791	39.079573355465	0.1
0	6801	39.079627355465	0.002
0	6801	39.079627355465	0.002
0	6803	39.079627355465	0
0	6803	39.079627355465	0.002
0	6803	39.079627355465	0.002
0	6818	39.090221355465	0
0	6818	39.090221355465	0
0	6818	39.090221355465	0.002
0	6819	39.090221355465	0
0	6819	39.090221355465	0.1
0	6829	39.090275355465	0.002
0	6829	39.090275355465	0.002
0	6831	39.090275355465	0
0	6831	39.090275355465	0.002
0	6831	39.090275355465	0.002
0	6846	39.107149355465	0
0	6846	39.107149355465	0
0	6846	39.107149355465	0.002
0	6847	39.107149355465	0
0	6847	39.107149355465	0.1
0	6857	39.107203355465	0.002
0	6857	39.107203355465	0.002
0	6859	39.107203355465	0
0	6859	39.107203355465	0.002
0	6859	39.107203355465	0.002
0	6873	39.121217355465	0
0	6873	39.121217355465	0
0	6873	39.121217355465	0.002
0	6874	39.121217355465	0
0	6874	39.121217355465	0.1
0	6884	39.121271355465	0.002
0	6884	39.121271355465	0.002
0	6886	39.121271355465	0
0	6886	39.121271355465	0.002
0	6886	39.121271355465	0.002
0	6899	39.124405355465	0
0	6899	39.124405355465	0
0	6899	39.124405355465	0.002
0	6900	39.124405355465	0
0	6900	39.124405355465	0.1
0	6910	39.124459355465	0.002
0	6910	39.124459355465	0.002
0	6912	39.124459355465	0
0	6912	39.124459355465	0.002
0	6912	39.124459355465	0.002
0	6927	39.136373355465	0
0	6927	39.136373355465	0
0	6927	39.136373355465	0.002
0	6928	39.136373355465	0
0	6928	39.136373355465	0.1
0	6938	39.136427355465	0.002
0	6938	39.136427355465	0.002
0	6940	39.136427355465	0
0	6940	39.136427355465	0.002
0	6940	39.136427355465	0.002
0	7500	42.073685355465	0
0	7500	42.073685355465	0
0	7500	42.073685355465	0.002
0	7501	42.073685355465	0
0	7501	42.073685355465	0.1
0	7511	42.073739355465	0.002
0	7511	42.073739355465	0.002
0	7513	42.073739355465	0
0	7513	42.073739355465	0.002
0	7513	42.073739355465	0.002
0	7527	42.093393355465	0
0	7527	42.093393355465	0
0	7527	42.093393355465	0.002
0	7528	42.093393355465	0
0	7528	42.093393355465	0.1
0	7538	42.093447355465	0.002
0	7538	42.093447355465	0.002
0	7540	42.093447355465	0
0	7540	42.093447355465	0.002
0	7540	42.093447355465	0.002
0	7555	42.113681355465	0
0	7555	42.113681355465	0
0	7555	42.113681355465	0.002
0	7556	42.113681355465	0
0	7556	42.113681355465	0.1
0	7566	42.113735355465	0.002
0	7566	42.113735355465	0.002
0	7568	42.113735355465	0
0	7568	42.113735355465	0.002
0	7568	42.113735355465	0.002
0	7582	42.129249355465	0
0	7582	42.129249355465	0
0	7582	42.129249355465	0.002
0	7583	42.129249355465	0
0	7583	42.129249355465	0.1
0	7593	42.129303355465	0.002
0	7593	42.129303355465	0.002
0	7595	42.129303355465	0
0	7595	42.129303355465	0.002
0	7595	42.129303355465	0.002
0	7608	42.134077355465	0
0	7608	42.134077355465	0
0	7608	42.134077355465	0.002
0	7609	42.134077355465	0
0	7609	42.134077355465	0.1
0	7619	42.134131355465	0.002
0	7619	42.134131355465	0.002
0	7621	42.134131355465	0
0	7621	42.134131355465	0.002
0	7621	42.134131355465	0.002
0	7636	42.148545355465	0
0	7636	42.148545355465	0
0	7636	42.148545355465	0.002
0	7637	42.148545355465	0
0	7637	42.148545355465	0.1
0	7647	42.148599355465	0.002
0	7647	42.148599355465	0.002
0	7649	42.148599355465	0
0	7649	42.148599355465	0.002
0	7649	42.148599355465	0.002
0	7663	42.168653355465	0
0	7663	42.168653355465	0
0	7663	42.168653355465	0.002
0	7664	42.168653355465	0
0	7664	42.168653355465	0.1
0	7674	42.168707355465	0.002
0	7674	42.168707355465	0.002
0	7676	42.168707355465	0
0	7676	42.168707355465	0.002
0	7676	42.168707355465	0.002
0	8297	45.073685355465	0
0	8297	45.073685355465	0
0	8297	45.073685355465	0.002
0	8298	45.073685355465	0
0	8298	45.073685355465	0.1
0	8308	45.073739355465	0.002
0	8308	45.073739355465	0.002
0	8310	45.073739355465	0
0	8310	45.073739355465	0.002
0	8310	45.073739355465	0.002
0	8324	45.084613355465	0
0	8324	45.084613355465	0
0	8324	45.084613355465	0.002
0	8325	45.084613355465	0
0	8325	45.084613355465	0.1
0	8335	45.084667355465	0.002
0	8335	45.084667355465	0.002
0	8337	45.084667355465	0
0	8337	45.084667355465	0.002
0	8337	45.084667355465	0.002
0	8352	45.104341355465	0
0	8352	45.104341355465	0
0	8352	45.104341355465	0.002
0	8353	45.104341355465	0
0	8353	45.104341355465	0.1
0	8363	45.104395355465	0.002
0	8363	45.104395355465	0.002
0	8365	45.104395355465	0
0	8365	45.104395355465	0.002
0	8365	45.104395355465	0.002
0	8378	45.108829355465	0
0	8378	45.108829355465	0
0	8378	45.108829355465	0.002
0	8379	45.108829355465	0
0	8379	45.108829355465	0.1
0	8389	45.108883355465	0.002
0	8389	45.108883355465	0.002
0	8391	45.108883355465	0
0	8391	45.108883355465	0.002
0	8391	45.108883355465	0.002
0	8406	45.122237355465	0
0	8406	45.122237355465	0
0	8406	45.122237355465	0.002
0	8407	45.122237355465	0
0	8407	45.122237355465	0.1
0	8417	45.122291355465	0.002
0	8417	45.122291355465	0.002
0	8419	45.122291355465	0
0	8419	45.122291355465	0.002
0	8419	45.122291355465	0.002
0	8433	45.138805355465	0
0	8433	45.138805355465	0
0	8433	45.138805355465	0.002
0	8434	45.138805355465	0
0	8434	45.138805355465	0.1
0	8444	45.138859355465	0.002
0	8444	45.138859355465	0.002
0	8446	45.138859355465	0
0	8446	45.138859355465	0.002
0	8446	45.138859355465	0.002
0	8459	45.145093355465	0
0	8459	45.145093355465	0
0	8459	45.145093355465	0.002
0	8460	45.145093355465	0
0	8460	45.145093355465	0.1
0	8470	45.145147355465	0.002
0	8470	45.145147355465	0.002
0	8472	45.145147355465	0
0	8472	45.145147355465	0.002
0	8472	45.145147355465	0.002
0	9091	48.073685355465	0
0	9091	48.073685355465	0
0	9091	48.073685355465	0.002
0	9092	48.073685355465	0
0	9092	48.073685355465	0.1
0	9102	48.073739355465	0.002
0	9102	48.073739355465	0.002
0	9104	48.073739355465	0
0	9104	48.073739355465	0.002
0	9104	48.073739355465	0.002
0	9118	48.084613355465	0
0	9118	48.084613355465	0
0	9118	48.084613355465	0.002
0	9119	48.084613355465	0
0	9119	48.084613355465	0.1
0	9129	48.084667355465	0.002
0	9129	48.084667355465	0.002
0	9131	48.084667355465	0
0	9131	48.084667355465	0.002
0	9131	48.084667355465	0.002
0	9144	48.093341355465	0
0	9144	48.093341355465	0
0	9144	48.093341355465	0.002
0	9145	48.093341355465	0
0	9145	48.093341355465	0.1
0	9155	48.093395355465	0.002
0	9155	48.093395355465	0.002
0	9157	48.093395355465	0
0	9157	48.093395355465	0.002
0	9157	48.093395355465	0.002
0	9171	48.097469355465	0
0	9171	48.097469355465	0
0	9171	48.097469355465	0.002
0	9172	48.097469355465	0
0	9172	48.097469355465	0.1
0	9182	48.097523355465	0.002
0	9182	48.097523355465	0.002
0	9184	48.097523355465	0
0	9184	48.097523355465	0.002
0	9184	48.097523355465	0.002
0	9199	48.106077355465	0
0	9199	48.106077355465	0
0	9199	48.106077355465	0.002
0	9200	48.106077355465	0
0	9200	48.106077355465	0.1
0	9210	48.106131355465	0.002
0	9210	48.106131355465	0.002
0	9212	48.106131355465	0
0	9212	48.106131355465	0.002
0	9212	48.106131355465	0.002
0	9225	48.107445355465	0
0	9225	48.107445355465	0
0	9225	48.107445355465	0.002
0	9226	48.107445355465	0
0	9226	48.107445355465	0.1
0	9236	48.107499355465	0.002
0	9236	48.107499355465	0.002
0	9238	48.107499355465	0
0	9238	48.107499355465	0.002
0	9238	48.107499355465	0.002
0	9252	48.114413355465	0
0	9252	48.114413355465	0
0	9252	48.114413355465	0.002
0	9253	48.114413355465	0
0	9253	48.114413355465	0.1
0	9263	48.114467355465	0.002
0	9263	48.114467355465	0.002
0	9265	48.114467355465	0
0	9265	48.114467355465	0.002
0	9265	48.114467355465	0.002
0	9885	51.073685355465	0
0	9885	51.073685355465	0
0	9885	51.073685355465	0.002
0	9886	51.073685355465	0
0	9886	51.073685355465	0.1
0	9896	51.073739355465	0.002
0	9896	51.073739355465	0.002
0	9898	51.073739355465	0
0	9898	51.073739355465	0.002
0	9898	51.073739355465	0.002
0	9911	51.077613355465	0
0	9911	51.077613355465	0
0	9911	51.077613355465	0.002
0	9912	51.077613355465	0
0	9912	51.077613355465	0.1
0	9922	51.077667355465	0.002
0	9922	51.077667355465	0.002
0	9924	51.077667355465	0
0	9924	51.077667355465	0.002
0	9924	51.077667355465	0.002
0	9937	51.080341355465	0
0	9937	51.080341355465	0
0	9937	51.080341355465	0.002
0	9938	51.080341355465	0
0	9938	51.080341355465	0.1
0	9948	51.080395355465	0.002
0	9948	51.080395355465	0.002
0	9950	51.080395355465	0
0	9950	51.080395355465	0.002
0	9950	51.080395355465	0.002
0	9964	51.084669355465	0
0	9964	51.084669355465	0
0	9964	51.084669355465	0.002
0	9965	51.084669355465	0
0	9965	51.084669355465	0.1
0	9975	51.084723355465	0.002
0	9975	51.084723355465	0.002
0	9977	51.084723355465	0
0	9977	51.084723355465	0.002
0	9977	51.084723355465	0.002
0	9992	51.092177355465	0
0	9992	51.092177355465	0
0	9992	51.092177355465	0.002
0	9993	51.092177355465	0
0	9993	51.092177355465	0.1
0	10003	51.092231355465	0.002
0	10003	51.092231355465	0.002
0	10005	51.092231355465	0
0	10005	51.092231355465	0.002
0	10005	51.092231355465	0.002
0	10019	51.098145355465	0
0	10019	51.098145355465	0
0	10019	51.098145355465	0.002
0	10020	51.098145355465	0
0	10020	51.098145355465	0.1
0	10030	51.098199355465	0.002
0	10030	51.098199355465	0.002
0	10032	51.098199355465	0
0	10032	51.098199355465	0.002
0	10032	51.098199355465	0.002
0	10047	51.105813355465	0
0	10047	51.105813355465	0
0	10047	51.105813355465	0.002
0	10048	51.105813355465	0
0	10048	51.105813355465	0.1
0	10058	51.105867355465	0.002
0	10058	51.105867355465	0.002
0	10060	51.105867355465	0
0	10060	51.105867355465	0.002
0	10060	51.105867355465	0.002
0	10679	54.073685355465	0
0	10679	54.073685355465	0
0	10679	54.073685355465	0.002
0	10680	54.073685355465	0
0	10680	54.073685355465	0.1
0	10690	54.073739355465	0.002
0	10690	54.073739355465	0.002
0	10692	54.073739355465	0
0	10692	54.073739355465	0.002
0	10692	54.073739355465	0.002
0	10706	54.084113355465	0
0	10706	54.084113355465	0
0	10706	54.084113355465	0.002
0	10707	54.084113355465	0
0	10707	54.084113355465	0.1
0	10717	54.084167355465	0.002
0	10717	54.084167355465	0.002
0	10719	54.084167355465	0
0	10719	54.084167355465	0.002
0	10719	54.084167355465	0.002
0	10732	54.085641355465	0
0	10732	54.085641355465	0
0	10732	54.085641355465	0.002
0	10733	54.085641355465	0
0	10733	54.085641355465	0.1
0	10743	54.085695355465	0.002
0	10743	54.085695355465	0.002
0	10745	54.085695355465	0
0	10745	54.085695355465	0.002
0	10745	54.085695355465	0.002
0	10758	54.092929355465	0
0	10758	54.092929355465	0
0	10758	54.092929355465	0.002
0	10759	54.092929355465	0
0	10759	54.092929355465	0.1
0	10769	54.092983355465	0.002
0	10769	54.092983355465	0.002
0	10771	54.092983355465	0
0	10771	54.092983355465	0.002
0	10771	54.092983355465	0.002
0	10788	54.111237355465	0
0	10788	54.111237355465	0
0	10788	54.111237355465	0.002
0	10789	54.111237355465	0
0	10789	54.111237355465	0.1
0	10799	54.111291355465	0.002
0	10799	54.111291355465	0.002
0	10801	54.111291355465	0
0	10801	54.111291355465	0.002
0	10801	54.111291355465	0.002
0	10815	54.122505355465	0
0	10815	54.122505355465	0
0	10815	54.122505355465	0.002
0	10816	54.122505355465	0
0	10816	54.122505355465	0.1
0	10826	54.122559355465	0.002
0	10826	54.122559355465	0.002
0	10828	54.122559355465	0
0	10828	54.122559355465	0.002
0	10828	54.122559355465	0.002
0	10842	54.140353355465	0
0	10842	54.140353355465	0
0	10842	54.140353355465	0.002
0	10843	54.140353355465	0
0	10843	54.140353355465	0.1
0	10853	54.140407355465	0.002
0	10853	54.140407355465	0.002
0	10855	54.140407355465	0
0	10855	54.140407355465	0.002
0	10855	54.140407355465	0.002
0	11455	57.073685355465	0
0	11455	57.073685355465	0
0	11455	57.073685355465	0.002
0	11456	57.073685355465	0
0	11456	57.073685355465	0.1
0	11466	57.073739355465	0.002
0	11466	57.073739355465	0.002
0	11468	57.073739355465	0
0	11468	57.073739355465	0.002
0	11468	57.073739355465	0.002
0	11481	57.077313355465	0
0	11481	57.077313355465	0
0	11481	57.077313355465	0.002
0	11482	57.077313355465	0
0	11482	57.077313355465	0.1
0	11492	57.077367355465	0.002
0	11492	57.077367355465	0.002
0	11494	57.077367355465	0
0	11494	57.077367355465	0.002
0	11494	57.077367355465	0.002
0	11508	57.085561355465	0
0	11508	57.085561355465	0
0	11508	57.085561355465	0.002
0	11509	57.085561355465	0
0	11509	57.085561355465	0.1
0	11519	57.085615355465	0.002
0	11519	57.085615355465	0.002
0	11521	57.085615355465	0
0	11521	57.085615355465	0.002
0	11521	57.085615355465	0.002
0	11535	57.089729355465	0
0	11535	57.089729355465	0
0	11535	57.089729355465	0.002
0	11536	57.089729355465	0
0	11536	57.089729355465	0.1
0	11546	57.089783355465	0.002
0	11546	57.089783355465	0.002
0	11548	57.089783355465	0
0	11548	57.089783355465	0.002
0	11548	57.089783355465	0.002
0	11564	57.107017355465	0
0	11564	57.107017355465	0
0	11564	57.107017355465	0.002
0	11565	57.107017355465	0
0	11565	57.107017355465	0.1
0	11575	57.107071355465	0.002
0	11575	57.107071355465	0.002
0	11577	57.107071355465	0
0	11577	57.107071355465	0.002
0	11577	57.107071355465	0.002
0	11591	57.117125355465	0
0	11591	57.117125355465	0
0	11591	57.117125355465	0.002
0	11592	57.117125355465	0
0	11592	57.117125355465	0.1
0	11602	57.117179355465	0.002
0	11602	57.117179355465	0.002
0	11604	57.117179355465	0
0	11604	57.117179355465	0.002
0	11604	57.117179355465	0.002
0	11617	57.126873355465	0
0	11617	57.126873355465	0
0	11617	57.126873355465	0.002
0	11618	57.126873355465	0
0	11618	57.126873355465	0.1
0	11628	57.126927355465	0.002
0	11628	57.126927355465	0.002
0	11630	57.126927355465	0
0	11630	57.126927355465	0.002
0	11630	57.126927355465	0.002
0	12231	60.073685355465	0
0	12231	60.073685355465	0
0	12231	60.073685355465	0.002
0	12232	60.073685355465	0
0	12232	60.073685355465	0.1
0	12242	60.073739355465	0.002
0	12242	60.073739355465	0.002
0	12244	60.073739355465	0
0	12244	60.073739355465	0.002
0	12244	60.073739355465	0.002
0	12258	60.092873355465	0
0	12258	60.092873355465	0
0	12258	60.092873355465	0.002
0	12259	60.092873355465	0
0	12259	60.092873355465	0.1
0	12269	60.092927355465	0.002
0	12269	60.092927355465	0.002
0	12271	60.092927355465	0
0	12271	60.092927355465	0.002
0	12271	60.092927355465	0.002
0	12286	60.110201355465	0
0	12286	60.110201355465	0
0	12286	60.110201355465	0.002
0	12287	60.110201355465	0
0	12287	60.110201355465	0.1
0	12297	60.110255355465	0.002
0	12297	60.110255355465	0.002
0	12299	60.110255355465	0
0	12299	60.110255355465	0.002
0	12299	60.110255355465	0.002
0	12312	60.112209355465	0
0	12312	60.112209355465	0
0	12312	60.112209355465	0.002
0	12313	60.112209355465	0
0	12313	60.112209355465	0.1
0	12323	60.112263355465	0.002
0	12323	60.112263355465	0.002
0	12325	60.112263355465	0
0	12325	60.112263355465	0.002
0	12325	60.112263355465	0.002
0	12340	60.130177355465	0
0	12340	60.130177355465	0
0	12340	60.130177355465	0.002
0	12341	60.130177355465	0
0	12341	60.130177355465	0.1
0	12351	60.130231355465	0.002
0	12351	60.130231355465	0.002
0	12353	60.130231355465	0
0	12353	60.130231355465	0.002
0	12353	60.130231355465	0.002
[...]
166	28979	32.9	0
166	28979	33	0
166	28979	33.1	0
166	28979	33.2	0
166	28979	33.3	0
166	28979	33.4	0
166	28979	33.5	0
166	28979	33.6	0
166	28979	33.7	0
166	28979	33.8	0
166	28979	33.9	0
166	28979	34	0
166	28979	34.1	0
166	28979	34.2	0
166	28979	34.3	0
166	28979	34.4	0
166	28979	34.5	0
166	28979	34.6	0
166	28979	34.7	0
166	28979	34.8	0
166	28979	34.9	0
166	28979	35	0
166	28979	35.1	0
166	28979	35.2	0
166	28979	35.3	0
166	28979	35.4	0
166	28979	35.5	0
166	28979	35.6	0
166	28979	35.7	0
166	28979	35.8	0
166	28979	35.9	0
166	28979	36	0
166	28979	36.1	0
166	28979	36.2	0
166	28979	36.3	0
166	28979	36.4	0
166	28979	36.5	0
166	28979	36.6	0
166	28979	36.7	0
166	28979	36.8	0
166	28979	36.9	0
166	28979	37	0
166	28979	37.1	0
166	28979	37.2	0
166	28979	37.3	0
166	28979	37.4	0
166	28979	37.5	0
166	28979	37.6	0
166	28979	37.7	0
166	28979	37.8	0
166	28979	37.9	0
166	28979	38	0
166	28979	38.1	0
166	28979	38.2	0
166	28979	38.3	0
166	28979	38.4	0
166	28979	38.5	0
166	28979	38.6	0
166	28979	38.7	0
166	28979	38.8	0
166	28979	38.9	0
166	28979	39	0
166	28979	39.1	0
166	28979	39.2	0
166	28979	39.3	0
166	28979	39.4	0
166	28979	39.5	0
166	28979	39.6	0
166	28979	39.7	0
166	28979	39.8	0
166	28979	39.9	0
166	28979	40	0
166	28979	40.1	0
166	28979	40.2	0
166	28979	40.3	0
166	28979	40.4	0
166	28979	40.5	0
166	28979	40.6	0
166	28979	40.7	0
166	28979	40.8	0
166	28979	40.9	0
166	28979	41	0
166	28979	41.1	0
166	28979	41.2	0
166	28979	41.3	0
166	28979	41.4	0
166	28979	41.5	0
166	28979	41.6	0
166	28979	41.7	0
166	28979	41.8	0
166	28979	41.9	0
166	28979	42	0
166	28979	42.1	0
166	28979	42.2	0
166	28979	42.3	0
166	28979	42.4	0
166	28979	42.5	0
166	28979	42.6	0
166	28979	42.7	0
166	28979	42.8	0
166	28979	42.9	0
166	28979	43	0
166	28979	43.1	0
166	28979	43.2	0
166	28979	43.3	0
166	28979	43.4	0
166	28979	43.5	0
166	28979	43.6	0
166	28979	43.7	0
166	28979	43.8	0
166	28979	43.9	0
166	28979	44	0
166	28979	44.1	0
166	28979	44.2	0
166	28979	44.3	0
166	28979	44.4	0
166	28979	44.5	0
166	28979	44.6	0
166	28979	44.7	0
166	28979	44.8	0
166	28979	44.9	0
166	28979	45	0
166	28979	45.1	0
166	28979	45.2	0
166	28979	45.3	0
166	28979	45.4	0
166	28979	45.5	0
166	28979	45.6	0
166	28979	45.7	0
166	28979	45.8	0
166	28979	45.9	0
166	28979	46	0
166	28979	46.1	0
166	28979	46.2	0
166	28979	46.3	0
166	28979	46.4	0
166	28979	46.5	0
166	28979	46.6	0
166	28979	46.7	0
166	28979	46.8	0
166	28979	46.9	0
166	28979	47	0
166	28979	47.1	0
166	28979	47.2	0
166	28979	47.3	0
166	28979	47.4	0
166	28979	47.5	0
166	28979	47.6	0
166	28979	47.7	0
166	28979	47.8	0
166	28979	47.9	0
166	28979	48	0
166	28979	48.1	0
166	28979	48.2	0
166	28979	48.3	0
166	28979	48.4	0
166	28979	48.5	0
166	28979	48.6	0
166	28979	48.7	0
166	28979	48.8	0
166	28979	48.9	0
166	28979	49	0
166	28979	49.1	0
166	28979	49.2	0
166	28979	49.3	0
166	28979	49.4	0
166	28979	49.5	0
166	28979	49.6	0
166	28979	49.7	0
166	28979	49.8	0
166	28979	49.9	0
166	28979	50	0
166	28979	50.1	0
166	28979	50.2	0
166	28979	50.3	0
166	28979	50.4	0
166	28979	50.5	0
166	28979	50.6	0
166	28979	50.7	0
166	28979	50.8	0
166	28979	50.9	0
166	28979	51	0
166	28979	51.1	0
166	28979	51.2	0
166	28979	51.3	0
166	28979	51.4	0
166	28979	51.5	0
166	28979	51.6	0
166	28979	51.7	0
166	28979	51.8	0
166	28979	51.9	0
166	28979	52	0
166	28979	52.1	0
166	28979	52.2	0
166	28979	52.3	0
166	28979	52.4	0
166	28979	52.5	0
166	28979	52.6	0
166	28979	52.7	0
166	28979	52.8	0
166	28979	52.9	0
166	28979	53	0
166	28979	53.1	0
166	28979	53.2	0
166	28979	53.3	0
166	28979	53.4	0
166	28979	53.5	0
166	28979	53.6	0
166	28979	53.7	0
166	28979	53.8	0
166	28979	53.9	0
166	28979	54	0
166	28979	54.1	0
166	28979	54.2	0
166	28979	54.3	0
166	28979	54.4	0
166	28979	54.5	0
166	28979	54.6	0
166	28979	54.7	0
166	28979	54.8	0
166	28979	54.9	0
166	28979	55	0
166	28979	55.1	0
166	28979	55.2	0
166	28979	55.3	0
166	28979	55.4	0
166	28979	55.5	0
166	28979	55.6	0
166	28979	55.7	0
166	28979	55.8	0
166	28979	55.9	0
166	28979	56	0
166	28979	56.1	0
166	28979	56.2	0
166	28979	56.3	0
166	28979	56.4	0
166	28979	56.5	0
166	28979	56.6	0
166	28979	56.7	0
166	28979	56.8	0
166	28979	56.9	0
166	28979	57	0
166	28979	57.1	0
166	28979	57.2	0
166	28979	57.3	0
166	28979	57.4	0
166	28979	57.5	0
166	28979	57.6	0
166	28979	57.7	0
166	28979	57.8	0
166	28979	57.9	0
166	28979	58	0
166	28979	58.1	0
166	28979	58.2	0
166	28979	58.3	0
166	28979	58.4	0
166	28979	58.5	0
166	28979	58.6	0
166	28979	58.7	0
166	28979	58.8	0
166	28979	58.9	0
166	28979	59	0
166	28979	59.1	0
166	28979	59.2	0
166	28979	59.3	0
166	28979	59.4	0
166	28979	59.5	0
166	28979	59.6	0
166	28979	59.7	0
166	28979	59.8	0
166	28979	59.9	0
166	28979	60	0
166	28979	60.1	0
166	28979	60.2	0
166	28979	60.3	0
166	28979	60.4	0
166	28979	60.5	0
166	28979	60.6	0
166	28979	60.7	0
166	28979	60.8	0
166	28979	60.9	0
166	28979	61	0
166	28979	61.1	0
166	28979	61.2	0
166	28979	61.3	0
166	28979	61.4	0
166	28979	61.5	0
166	28979	61.6	0
166	28979	61.7	0
166	28979	61.8	0
166	28979	61.9	0
166	28979	62	0
166	28979	62.1	0
166	28979	62.2	0
166	28979	62.3	0
166	28979	62.4	0
166	28979	62.5	0
166	28979	62.6	0
166	28979	62.7	0
166	28979	62.8	0
166	28979	62.9	0
166	28979	63	0
166	28979	63.1	0
166	28979	63.2	0
166	28979	63.3	0
166	28979	63.4	0
166	28979	63.5	0
166	28979	63.6	0
166	28979	63.7	0
166	28979	63.8	0
166	28979	63.9	0
166	28979	64	0
166	28979	64.1	0
166	28979	64.2	0
166	28979	64.3	0
166	28979	64.4	0
166	28979	64.5	0
166	28979	64.6	0
166	28979	64.7	0
166	28979	64.8	0
166	28979	64.9	0
166	28979	65	0
166	28979	65.1	0
166	28979	65.2	0
166	28979	65.3	0
166	28979	65.4	0
166	28979	65.5	0
166	28979	65.6	0
166	28979	65.7	0
166	28979	65.8	0
166	28979	65.9	0
166	28979	66	0
166	28979	66.1	0
166	28979	66.2	0
166	28979	66.3	0
166	28979	66.4	0
166	28979	66.5	0
166	28979	66.6	0
166	28979	66.7	0
166	28979	66.8	0
166	28979	66.9	0
166	28979	67	0
166	28979	67.1	0
166	28979	67.2	0
166	28979	67.3	0
166	28979	67.4	0
166	28979	67.5	0
166	28979	67.6	0
166	28979	67.7	0
166	28979	67.8	0
166	28979	67.9	0
166	28979	68	0
166	28979	68.1	0
166	28979	68.2	0
166	28979	68.3	0
166	28979	68.4	0
166	28979	68.5	0
166	28979	68.6	0
166	28979	68.7	0
166	28979	68.8	0
166	28979	68.9	0
166	28979	69	0
166	28979	69.1	0
166	28979	69.2	0
166	28979	69.3	0
166	28979	69.4	0
166	28979	69.5	0
166	28979	69.6	0
166	28979	69.7	0
166	28979	69.8	0
166	28979	69.9	0
166	28979	70	0
166	28979	70.1	0
166	28979	70.2	0
166	28979	70.3	0
166	28979	70.4	0
166	28979	70.5	0
166	28979	70.6	0
166	28979	70.7	0
166	28979	70.8	0
166	28979	70.9	0
166	28979	71	0
166	28979	71.1	0
166	28979	71.2	0
166	28979	71.3	0
166	28979	71.4	0
166	28979	71.5	0
166	28979	71.6	0
166	28979	71.7	0
166	28979	71.8	0
166	28979	71.9	0
166	28979	72	0
166	28979	72.1	0
166	28979	72.2	0
166	28979	72.3	0
166	28979	72.4	0
166	28979	72.5	0
166	28979	72.6	0
166	28979	72.7	0
166	28979	72.8	0
166	28979	72.9	0
166	28979	73	0
166	28979	73.1	0
166	28979	73.2	0
166	28979	73.3	0
166	28979	73.4	0
166	28979	73.5	0
166	28979	73.6	0
166	28979	73.7	0
166	28979	73.8	0
166	28979	73.9	0
166	28979	74	0
166	28979	74.1	0
166	28979	74.2	0
166	28979	74.3	0
166	28979	74.4	0
166	28979	74.5	0
166	28979	74.6	0
166	28979	74.7	0
166	28979	74.8	0
166	28979	74.9	0
166	28979	75	0
166	28979	75.1	0
166	28979	75.2	0
166	28979	75.3	0
166	28979	75.4	0
166	28979	75.5	0
166	28979	75.6	0
166	28979	75.7	0
166	28979	75.8	0
166	28979	75.9	0
166	28979	76	0
166	28979	76.1	0
166	28979	76.2	0
166	28979	76.3	0
166	28979	76.4	0
166	28979	76.5	0
166	28979	76.6	0
166	28979	76.7	0
166	28979	76.8	0
166	28979	76.9	0
166	28979	77	0
166	28979	77.1	0
166	28979	77.2	0
166	28979	77.3	0
166	28979	77.4	0
166	28979	77.5	0
166	28979	77.6	0
166	28979	77.7	0
166	28979	77.8	0
166	28979	77.9	0
166	28979	78	0
166	28979	78.1	0
166	28979	78.2	0
166	28979	78.3	0
166	28979	78.4	0
166	28979	78.5	0
166	28979	78.6	0
166	28979	78.7	0
166	28979	78.8	0
166	28979	78.9	0
166	28979	79	0
166	28979	79.1	0
166	28979	79.2	0
166	28979	79.3	0
166	28979	79.4	0
166	28979	79.5	0
166	28979	79.6	0
166	28979	79.7	0
166	28979	79.8	0
166	28979	79.9	0
166	28979	80	0
166	28979	80.1	0
166	28979	80.2	0
166	28979	80.3	0
166	28979	80.4	0
166	28979	80.5	0
166	28979	80.6	0
166	28979	80.7	0
166	28979	80.8	0
166	28979	80.9	0
166	28979	81	0
166	28979	81.1	0
166	28979	81.2	0
166	28979	81.3	0
166	28979	81.4	0
166	28979	81.5	0
166	28979	81.6	0
166	28979	81.7	0
166	28979	81.8	0
166	28979	81.9	0
166	28979	82	0
166	28979	82.1	0
166	28979	82.2	0
166	28979	82.3	0
166	28979	82.4	0
166	28979	82.5	0
166	28979	82.6	0
166	28979	82.7	0
166	28979	82.8	0
166	28979	82.9	0
166	28979	83	0
166	28979	83.1	0
166	28979	83.2	0
166	28979	83.3	0
166	28979	83.4	0
166	28979	83.5	0
166	28979	83.6	0
166	28979	83.7	0
166	28979	83.8	0
166	28979	83.9	0
166	28979	84	0
166	28979	84.1	0
166	28979	84.2	0
166	28979	84.3	0
166	28979	84.4	0
166	28979	84.5	0
166	28979	84.6	0
166	28979	84.7	0
166	28979	84.8	0
166	28979	84.9	0
166	28979	85	0
166	28979	85.1	0
166	28979	85.2	0
166	28979	85.3	0
166	28979	85.4	0
166	28979	85.5	0
166	28979	85.6	0
166	28979	85.7	0
166	28979	85.8	0
166	28979	85.9	0
166	28979	86	0
166	28979	86.1	0
166	28979	86.2	0
166	28979	86.3	0
166	28979	86.4	0
166	28979	86.5	0
166	28979	86.6	0
166	28979	86.7	0
166	28979	86.8	0
166	28979	86.9	0
166	28979	87	0
166	28979	87.1	0
166	28979	87.2	0
166	28979	87.3	0
166	28979	87.4	0
166	28979	87.5	0
166	28979	87.6	0
166	28979	87.7	0
166	28979	87.8	0
166	28979	87.9	0
166	28979	88	0
166	28979	88.1	0
166	28979	88.2	0
166	28979	88.3	0
166	28979	88.4	0
166	28979	88.5	0
166	28979	88.6	0
166	28979	88.7	0
166	28979	88.8	0
166	28979	88.9	0
166	28979	89	0
166	28979	89.1	0
166	28979	89.2	0
166	28979	89.3	0
166	28979	89.4	0
166	28979	89.5	0
166	28979	89.6	0
166	28979	89.7	0
166	28979	89.8	0
166	28979	89.9	0
166	28979	90	0
166	28979	90.1	0
166	28979	90.2	0
166	28979	90.3	0
166	28979	90.4	0
166	28979	90.5	0
166	28979	90.6	0
166	28979	90.7	0
166	28979	90.8	0
166	28979	90.9	0
166	28979	91	0
166	28979	91.1	0
166	28979	91.2	0
166	28979	91.3	0
166	28979	91.4	0
166	28979	91.5	0
166	28979	91.6	0
166	28979	91.7	0
166	28979	91.8	0
166	28979	91.9	0
166	28979	92	0
166	28979	92.1	0
166	28979	92.2	0
166	28979	92.3	0
166	28979	92.4	0
166	28979	92.5	0
166	28979	92.6	0
166	28979	92.7	0
166	28979	92.8	0
166	28979	92.9	0
166	28979	93	0
166	28979	93.1	0
166	28979	93.2	0
166	28979	93.3	0
166	28979	93.4	0
166	28979	93.5	0
166	28979	93.6	0
166	28979	93.7	0
166	28979	93.8	0
166	28979	93.9	0
166	28979	94	0
166	28979	94.1	0
166	28979	94.2	0
166	28979	94.3	0
166	28979	94.4	0
166	28979	94.5	0
166	28979	94.6	0
166	28979	94.7	0
166	28979	94.8	0
166	28979	94.9	0
166	28979	95	0
166	28979	95.1	0
166	28979	95.2	0
166	28979	95.3	0
166	28979	95.4	0
166	28979	95.5	0
166	28979	95.6	0
166	28979	95.7	0
166	28979	95.8	0
166	28979	95.9	0
166	28979	96	0
166	28979	96.1	0
166	28979	96.2	0
166	28979	96.3	0
166	28979	96.4	0
166	28979	96.5	0
166	28979	96.6	0
166	28979	96.7	0
166	28979	96.8	0
166	28979	96.9	0
166	28979	97	0
166	28979	97.1	0
166	28979	97.2	0
166	28979	97.3	0
166	28979	97.4	0
166	28979	97.5	0
166	28979	97.6	0
166	28979	97.7	0
166	28979	97.8	0
166	28979	97.9	0
166	28979	98	0
166	28979	98.1	0
166	28979	98.2	0
166	28979	98.3	0
166	28979	98.4	0
166	28979	98.5	0
166	28979	98.6	0
166	28979	98.7	0
166	28979	98.8	0
166	28979	98.9	0
166	28979	99	0
166	28979	99.1	0
166	28979	99.2	0
166	28979	99.3	0
166	28979	99.4	0
166	28979	99.5	0
166	28979	99.6	0
166	28979	99.7	0
166	28979	99.8	0
166	28979	99.9	0
166	28979	100	0
166	28979	100.1	0
166	28979	100.2	0
166	28979	100.3	0
166	28979	100.4	0
166	28979	100.5	0
166	28979	100.6	0
166	28979	100.7	0
166	28979	100.8	0
166	28979	100.9	0
166	28979	101	0
166	28979	101.1	0
166	28979	101.2	0
166	28979	101.3	0
166	28979	101.4	0
166	28979	101.5	0
166	28979	101.6	0
166	28979	101.7	0
166	28979	101.8	0
166	28979	101.9	0
166	28979	102	0
166	28979	102.1	0
166	28979	102.2	0
166	28979	102.3	0
166	28979	102.4	0
166	28979	102.5	0
166	28979	102.6	0
166	28979	102.7	0
166	28979	102.8	0
166	28979	102.9	0
166	28979	103	0
166	28979	103.1	0
166	28979	103.2	0
166	28979	103.3	0
166	28979	103.4	0
166	28979	103.5	0
166	28979	103.6	0
166	28979	103.7	0
166	28979	103.8	0
166	28979	103.9	0
166	28979	104	0
166	28979	104.1	0
166	28979	104.2	0
166	28979	104.3	0
166	28979	104.4	0
166	28979	104.5	0
166	28979	104.6	0
166	28979	104.7	0
166	28979	104.8	0
166	28979	104.9	0
166	28979	105	0
166	28979	105.1	0
166	28979	105.2	0
166	28979	105.3	0
166	28979	105.4	0
166	28979	105.5	0
166	28979	105.6	0
166	28979	105.7	0
166	28979	105.8	0
166	28979	105.9	0
166	28979	106	0
166	28979	106.1	0
166	28979	106.2	0
166	28979	106.3	0
166	28979	106.4	0
166	28979	106.5	0
166	28979	106.6	0
166	28979	106.7	0
166	28979	106.8	0
166	28979	106.9	0
166	28979	107	0
166	28979	107.1	0
166	28979	107.2	0
166	28979	107.3	0
166	28979	107.4	0
166	28979	107.5	0
166	28979	107.6	0
166	28979	107.7	0
166	28979	107.8	0
166	28979	107.9	0
166	28979	108	0
166	28979	108.1	0
166	28979	108.2	0
166	28979	108.3	0
166	28979	108.4	0
166	28979	108.5	0
166	28979	108.6	0
166	28979	108.7	0
166	28979	108.8	0
166	28979	108.9	0
166	28979	109	0
166	28979	109.1	0
166	28979	109.2	0
166	28979	109.3	0
166	28979	109.4	0
166	28979	109.5	0
166	28979	109.6	0
166	28979	109.7	0
166	28979	109.8	0
166	28979	109.9	0
166	28979	110	0
166	28979	110.1	0
166	28979	110.2	0
166	28979	110.3	0
166	28979	110.4	0
166	28979	110.5	0
166	28979	110.6	0
166	28979	110.7	0
166	28979	110.8	0
166	28979	110.9	0
166	28979	111	0
166	28979	111.1	0
166	28979	111.2	0
166	28979	111.3	0
166	28979	111.4	0
166	28979	111.5	0
166	28979	111.6	0
166	28979	111.7	0
166	28979	111.8	0
166	28979	111.9	0
166	28979	112	0
166	28979	112.1	0
166	29360	112.2	80
166	29360	112.3	0
166	29360	112.4	0
166	29360	112.5	0
166	29360	112.6	0
166	29360	112.7	0
166	29360	112.8	0
166	29360	112.9	0
166	29360	113	0
166	29360	113.1	0
166	29931	113.2	80
166	29931	113.3	0
166	29931	113.4	0
166	29931	113.5	0
166	29931	113.6	0
166	29931	113.7	0
166	29931	113.8	0
166	29931	113.9	0
166	29931	114	0
166	29931	114.1	0
166	30312	114.2	80
166	30312	114.3	0
166	30312	114.4	0
166	30312	114.5	0
166	30312	114.6	0
166	30312	114.7	0
166	30312	114.8	0
166	30312	114.9	0
166	30312	115	0
166	30312	115.1	0
166	30690	115.2	80
166	30690	115.3	0
166	30690	115.4	0
166	30690	115.5	0
166	30690	115.6	0
166	30690	115.7	0
166	30690	115.8	0
166	30690	115.9	0
166	30690	116	0
166	30690	116.1	0
166	31262	116.2	80
166	31262	116.3	0
166	31262	116.4	0
166	31262	116.5	0
166	31262	116.6	0
166	31262	116.7	0
166	31262	116.8	0
166	31262	116.9	0
166	31262	117	0
166	31262	117.1	0
166	31639	117.2	80
166	31639	117.3	0
166	31639	117.4	0
166	31639	117.5	0
166	31639	117.6	0
166	31639	117.7	0
166	31639	117.8	0
166	31639	117.9	0
166	31639	118	0
166	31639	118.1	0
166	32016	118.2	80
166	32016	118.3	0
166	32016	118.4	0
166	32016	118.5	0
166	32016	118.6	0
166	32016	118.7	0
166	32016	118.8	0
166	32016	118.9	0
166	32016	119	0
166	32016	119.1	0
166	32588	119.2	80
166	32588	119.3	0
166	32588	119.4	0
166	32588	119.5	0
166	32588	119.6	0
166	32588	119.7	0
166	32588	119.8	0
166	32588	119.9	0
166	32588	120	0
166	32588	120.1	0
166	32966	120.2	80
166	32966	120.3	0
166	32966	120.4	0
166	32966	120.5	0
166	32966	120.6	0
166	32966	120.7	0
166	32966	120.8	0
166	32966	120.9	0
166	32966	121	0
166	32966	121.1	0
166	33344	121.2	80
166	33344	121.3	0
166	33344	121.4	0
166	33344	121.5	0
166	33344	121.6	0
166	33344	121.7	0
166	33344	121.8	0
166	33344	121.9	0
166	33344	122	0
166	33344	122.1	0
166	33917	122.2	80
166	33917	122.3	0
166	33917	122.4	0
166	33917	122.5	0
166	33917	122.6	0
166	33917	122.7	0
166	33917	122.8	0
166	33917	122.9	0
166	33917	123	0
166	33917	123.1	0
166	34295	123.2	80
166	34295	123.3	0
166	34295	123.4	0
166	34295	123.5	0
166	34295	123.6	0
166	34295	123.7	0
166	34295	123.8	0
166	34295	123.9	0
166	34295	124	0
166	34295	124.1	0
166	34673	124.2	80
166	34673	124.3	0
166	34673	124.4	0
166	34673	124.5	0
166	34673	124.6	0
166	34673	124.7	0
166	34673	124.8	0
166	34673	124.9	0
166	34673	125	0
166	34673	125.1	0
166	35246	125.2	80
166	35246	125.3	0
166	35246	125.4	0
166	35246	125.5	0
166	35246	125.6	0
166	35246	125.7	0
166	35246	125.8	0
166	35246	125.9	0
166	35246	126	0
166	35246	126.1	0
166	35628	126.2	80
166	35628	126.3	0
166	35628	126.4	0
166	35628	126.5	0
166	35628	126.6	0
166	35628	126.7	0
166	35628	126.8	0
166	35628	126.9	0
166	35628	127	0
166	35628	127.1	0
166	36017	127.2	80
166	36017	127.3	0
166	36017	127.4	0
166	36017	127.5	0
166	36017	127.6	0
166	36017	127.7	0
166	36017	127.8	0
166	36017	127.9	0
166	36017	128	0
166	36017	128.1	0
166	36606	128.2	80
166	36606	128.3	0
166	36606	128.4	0
166	36606	128.5	0
166	36606	128.6	0
166	36606	128.7	0
166	36606	128.8	0
166	36606	128.9	0
166	36606	129	0
166	36606	129.1	0
166	37000	129.2	80
166	37000	129.3	0
166	37000	129.4	0
166	37000	129.5	0
166	37000	129.6	0
166	37000	129.7	0
166	37000	129.8	0
166	37000	129.9	0
166	37000	130	0
166	37000	130.1	0
167	28979	112.173676016441	0
167	29360	113.173676016441	0
167	29931	114.173676016441	0
167	30312	115.173676016441	0
167	30690	116.173676016441	0
167	31262	117.173676016441	0
167	31639	118.173676016441	0
167	32016	119.173676016441	0
167	32588	120.173676016441	0
167	32966	121.173676016441	0
167	33344	122.173676016441	0
167	33917	123.173676016441	0
167	34295	124.173676016441	0
167	34673	125.173676016441	0
167	35246	126.173676016441	0
167	35628	127.173676016441	0
167	36017	128.173676016441	0
167	36606	129.173676016441	0
167	37000	130.173676016441	0
168	28993	112.173726016441	65
168	29374	113.173726016441	65
168	29945	114.173726016441	65
168	30326	115.173726016441	65
168	30704	116.173726016441	65
168	31276	117.173726016441	65
168	31653	118.173726016441	65
168	32030	119.173726016441	65
168	32602	120.173726016441	65
168	32980	121.173726016441	65
168	33358	122.173726016441	65
168	33931	123.173726016441	65
168	34309	124.173726016441	65
168	34687	125.173726016441	65
168	35260	126.173726016441	65
168	35642	127.173726016441	65
168	36031	128.173726016441	65
168	36620	129.173726016441	65
168	37014	130.173726016441	65
169	29005	112.174764016441	1
169	29006	112.174956016441	2
169	29016	112.176364016441	1
169	29016	112.176364016441	0
169	29386	113.176044016441	1
169	29387	113.176236016441	2
169	29397	113.177644016441	1
169	29397	113.177644016441	0
169	29957	114.174444016441	1
169	29958	114.174636016441	2
169	29968	114.176044016441	1
169	29968	114.176044016441	0
169	30338	115.174124016441	1
169	30339	115.174316016441	2
169	30349	115.175724016441	1
169	30349	115.175724016441	0
169	30716	116.175404016441	1
169	30717	116.175596016441	2
169	30727	116.177004016441	1
169	30727	116.177004016441	0
169	31288	117.174764016441	1
169	31289	117.174956016441	2
169	31299	117.176364016441	1
169	31299	117.176364016441	0
169	31665	118.175404016441	1
169	31666	118.175596016441	2
169	31676	118.177004016441	1
169	31676	118.177004016441	0
169	32042	119.175404016441	1
169	32043	119.175596016441	2
169	32053	119.177004016441	1
169	32053	119.177004016441	0
169	32614	120.175724016441	1
169	32615	120.175916016441	2
169	32625	120.177324016441	1
169	32625	120.177324016441	0
169	32992	121.174764016441	1
169	32993	121.174956016441	2
169	33003	121.176364016441	1
169	33003	121.176364016441	0
169	33370	122.174764016441	1
169	33371	122.174956016441	2
169	33381	122.176364016441	1
169	33381	122.176364016441	0
169	33943	123.176044016441	1
169	33944	123.176236016441	2
169	33954	123.177644016441	1
169	33954	123.177644016441	0
169	34321	124.176044016441	1
169	34322	124.176236016441	2
169	34332	124.177644016441	1
169	34332	124.177644016441	0
169	34699	125.176044016441	1
169	34700	125.176236016441	2
169	34710	125.177644016441	1
169	34710	125.177644016441	0
169	35271	126.173804016441	1
169	35272	126.173996016441	2
169	35282	126.175404016441	1
169	35282	126.175404016441	0
169	35653	127.173804016441	1
169	35654	127.173996016441	2
169	35664	127.175404016441	1
169	35664	127.175404016441	0
169	36043	128.175724016441	1
169	36044	128.175916016441	2
169	36054	128.177324016441	1
169	36054	128.177324016441	0
169	36631	129.173804016441	1
169	36632	129.173996016441	2
169	36642	129.175404016441	1
169	36642	129.175404016441	0
169	37026	130.176044016441	1
169	37027	130.176236016441	2
169	37037	130.177644016441	1
169	37037	130.177644016441	0
