version 2
run Sim4drone-0-20210725-19:07:57-19696
attr configname Sim4drone
attr datetime 20210725-19:07:57
attr experiment Sim4drone
attr inifile mobilityDrones-omnetpp.ini
attr iterationvars ""
attr iterationvarsf ""
attr measurement ""
attr network mobilityDrones
attr processid 19696
attr repetition 0
attr replication #0
attr resultdir results
attr runnumber 0
attr seedset 0
param *.numUAVs 4
param *.quads[0].app[0].destAddresses "\"quads[1] quads[2] quads[3] sensors[0] sensors[1] sensors[2]\""
param *.quads[1].app[0].destAddresses "\"quads[0] quads[2] quads[3] sensors[0] sensors[1] sensors[2]\""
param *.quads[2].app[0].destAddresses "\"quads[0] quads[1] quads[3] sensors[0] sensors[1] sensors[2]\""
param *.quads[3].app[0].destAddresses "\"quads[0] quads[1] quads[2] sensors[0] sensors[1] sensors[2]\""
param *.quads[*].mobility.waypointFile "\"paths/voo2.waypoints\""
param *.quads[*].app[*].timeoutDuration 5s
param *.quads[0].mobility.startTime 0s
param *.quads[1].mobility.startTime 40s
param *.quads[2].mobility.startTime 80s
param *.quads[3].mobility.startTime 110s
param *.quads[0].app[*].startTime "normal(1s, 1s)"
param *.quads[1].app[*].startTime "normal(40s, 1s)"
param *.quads[2].app[*].startTime "normal(80s, 1s)"
param *.quads[3].app[*].startTime "normal(110s, 1s)"
param *.numSensors 8
param *.sensors[*].numApps 1
param *.sensors[*].app[0].typename "\"UdpSensorCommunicationApp\""
param *.sensors[*].app[0].destAddresses "\"quads[0] quads[1] quads[2] quads[3]\""
param *.sensors[*].app[0].destPort 1000
param *.sensors[*].app[0].sendInterval 8s
param *.sensors[*].app[0].startTime exponential(1s)
param *.sensors[*].app[0].messageLength 1454Byte
param *.sensors[*].mobility.initialAltitude 0m
param *.sensors[0].mobility.initialLatitude -15.84245230deg
param *.sensors[0].mobility.initialLongitude -47.92948720deg
param *.sensors[1].mobility.initialLatitude -15.84262780deg
param *.sensors[1].mobility.initialLongitude -47.92650460deg
param *.sensors[2].mobility.initialLatitude -15.84161630deg
param *.sensors[2].mobility.initialLongitude -47.92395110deg
param *.sensors[3..7].app[0].typename "\"UdpSinkMobileSenserNode\""
param *.sensors[3].mobility.initialLatitude -15.8436264deg
param *.sensors[3].mobility.initialLongitude -47.9270250deg
param *.sensors[4].mobility.initialLatitude -15.8406461deg
param *.sensors[4].mobility.initialLongitude -47.9240263deg
param *.sensors[5].mobility.initialLatitude -15.8416370deg
param *.sensors[5].mobility.initialLongitude -47.9227066deg
param *.sensors[6].mobility.initialLatitude -15.8437115deg
param *.sensors[6].mobility.initialLongitude -47.9259145deg
param *.sensors[7].mobility.initialLatitude -15.8437425deg
param *.sensors[7].mobility.initialLongitude -47.9246378deg
param *.visualizer.osgVisualizer.typename "\"IntegratedOsgVisualizer\""
param *.visualizer.osgVisualizer.sceneVisualizer.typename "\"SceneOsgEarthVisualizer\""
param *.visualizer.osgVisualizer.sceneVisualizer.mapFile "\"map.earth\""
param *.visualizer.osgVisualizer.sceneVisualizer.sceneImageSize 10000m
param *.visualizer.osgVisualizer.sceneVisualizer.axisLength 500m
param *.visualizer.osgVisualizer.sceneVisualizer.sceneMinX -200m
param *.visualizer.osgVisualizer.sceneVisualizer.sceneMinY -200m
param *.visualizer.osgVisualizer.sceneVisualizer.sceneMinZ 0m
param *.visualizer.osgVisualizer.sceneVisualizer.sceneMaxX 5000m
param *.visualizer.osgVisualizer.sceneVisualizer.sceneMaxY 5000m
param *.visualizer.osgVisualizer.sceneVisualizer.sceneMaxZ 5000m
param *.visualizer.osgVisualizer.networkNodeVisualizer.displayModuleName true
param *.visualizer.*.statisticVisualizer.signalName "\"dataLoad\""
param *.visualizer.*.statisticVisualizer.format "\"(%v/100)\""
param *.visualizer.*.statisticVisualizer.textColor "\"red\""
param *.visualizer.*.statisticVisualizer.font "\"Courier New, 12px, bold\""
param *.visualizer.*.statisticVisualizer.opacity 1
param *.visualizer.*.statisticVisualizer.sourceFilter "\"*.quads[*].**\""
param *.visualizer.*.mobilityVisualizer.displayMobility true
param *.visualizer.*.mobilityVisualizer.displayPositions true
param *.visualizer.*.mobilityVisualizer.displayOrientations true
param *.visualizer.*.mobilityVisualizer.displayVelocities true
param *.visualizer.*.mobilityVisualizer.displayMovementTrails true
param *.visualizer.*.mobilityVisualizer.animationSpeed 10
param *.visualizer.mediumVisualizer.displaySignals true
param **.constraintAreaMinX -5000m
param **.constraintAreaMinY -5000m
param **.constraintAreaMinZ -100m
param **.constraintAreaMaxX 5000m
param **.constraintAreaMaxY 5000m
param **.constraintAreaMaxZ 5000m
param *.dquads.wlan[0].radio.displayCommunicationRange true
param *.coordinateSystem.sceneLongitude -47.926634deg
param *.coordinateSystem.sceneLatitude -15.840075deg
param *.coordinateSystem.sceneHeading 90deg
param *.environment.ground.typename "\"FlatGround\""
param *.quads[*].osgModel "\"3d/drone.ive.80.scale.0,0,90.rot\""
param *.quads[*].mobility.coordinateSystemModule "\"coordinateSystem\""
param *.quads[*].mobility.waypointFile "\"paths/gradys-vai-e-volta-descendo-5s-v1.txt\""
param *.quads[*].mobility.waypointProximity 1m
param **.mobility.initFromDisplayString false
param *.quads[*].mobility.speed 10mps
param *.quads[*].numApps 1
param *.quads[*].app[0].typename "\"UdpMobileNodeCommunicationApp\""
param *.quads[*].app[0].localPort 1000
param *.quads[*].app[0].destPort 1000
param *.quads[*].app[0].sendInterval 1s
param *.quads[*].app[0].startTime 1s
param *.quads[*].app[0].stopTime -1s
param *.quads[*].app[0].messageLength 1454Byte
param *.quads[*].app[0].packetName "\"UAV-DEFAULT-PAYLOAD\""
param *.quads[*].mobility.typename "\"DroneMobility\""
param *.sensors[*].mobility.typename "\"StationaryMobility\""
param *.sensors[*].mobility.coordinateSystemModule "\"coordinateSystem\""

vector 0 mobilityDrones.quads[0].wlan[0].radio radioMode:vector ETV
attr interpolationmode sample-hold
attr source radioModeChanged
attr title "Radio mode, vector"
vector 1 mobilityDrones.quads[0].wlan[0].radio radioChannel:vector ETV
attr interpolationmode sample-hold
attr source radioChannelChanged
attr title "Radio channel, vector"
vector 2 mobilityDrones.quads[1].wlan[0].radio radioMode:vector ETV
attr interpolationmode sample-hold
attr source radioModeChanged
attr title "Radio mode, vector"
vector 3 mobilityDrones.quads[1].wlan[0].radio radioChannel:vector ETV
attr interpolationmode sample-hold
attr source radioChannelChanged
attr title "Radio channel, vector"
vector 4 mobilityDrones.quads[2].wlan[0].radio radioMode:vector ETV
attr interpolationmode sample-hold
attr source radioModeChanged
attr title "Radio mode, vector"
vector 5 mobilityDrones.quads[2].wlan[0].radio radioChannel:vector ETV
attr interpolationmode sample-hold
attr source radioChannelChanged
attr title "Radio channel, vector"
vector 6 mobilityDrones.quads[3].wlan[0].radio radioMode:vector ETV
attr interpolationmode sample-hold
attr source radioModeChanged
attr title "Radio mode, vector"
vector 7 mobilityDrones.quads[3].wlan[0].radio radioChannel:vector ETV
attr interpolationmode sample-hold
attr source radioChannelChanged
attr title "Radio channel, vector"
vector 8 mobilityDrones.sensors[0].wlan[0].radio radioMode:vector ETV
attr interpolationmode sample-hold
attr source radioModeChanged
attr title "Radio mode, vector"
vector 9 mobilityDrones.sensors[0].wlan[0].radio radioChannel:vector ETV
attr interpolationmode sample-hold
attr source radioChannelChanged
attr title "Radio channel, vector"
vector 10 mobilityDrones.sensors[1].wlan[0].radio radioMode:vector ETV
attr interpolationmode sample-hold
attr source radioModeChanged
attr title "Radio mode, vector"
vector 11 mobilityDrones.sensors[1].wlan[0].radio radioChannel:vector ETV
attr interpolationmode sample-hold
attr source radioChannelChanged
attr title "Radio channel, vector"
vector 12 mobilityDrones.sensors[2].wlan[0].radio radioMode:vector ETV
attr interpolationmode sample-hold
attr source radioModeChanged
attr title "Radio mode, vector"
vector 13 mobilityDrones.sensors[2].wlan[0].radio radioChannel:vector ETV
attr interpolationmode sample-hold
attr source radioChannelChanged
attr title "Radio channel, vector"
vector 14 mobilityDrones.sensors[3].wlan[0].radio radioMode:vector ETV
attr interpolationmode sample-hold
attr source radioModeChanged
attr title "Radio mode, vector"
vector 15 mobilityDrones.sensors[3].wlan[0].radio radioChannel:vector ETV
attr interpolationmode sample-hold
attr source radioChannelChanged
attr title "Radio channel, vector"
vector 16 mobilityDrones.sensors[4].wlan[0].radio radioMode:vector ETV
attr interpolationmode sample-hold
attr source radioModeChanged
attr title "Radio mode, vector"
vector 17 mobilityDrones.sensors[4].wlan[0].radio radioChannel:vector ETV
attr interpolationmode sample-hold
attr source radioChannelChanged
attr title "Radio channel, vector"
vector 18 mobilityDrones.sensors[5].wlan[0].radio radioMode:vector ETV
attr interpolationmode sample-hold
attr source radioModeChanged
attr title "Radio mode, vector"
vector 19 mobilityDrones.sensors[5].wlan[0].radio radioChannel:vector ETV
attr interpolationmode sample-hold
attr source radioChannelChanged
attr title "Radio channel, vector"
vector 20 mobilityDrones.sensors[6].wlan[0].radio radioMode:vector ETV
attr interpolationmode sample-hold
attr source radioModeChanged
attr title "Radio mode, vector"
vector 21 mobilityDrones.sensors[6].wlan[0].radio radioChannel:vector ETV
attr interpolationmode sample-hold
attr source radioChannelChanged
attr title "Radio channel, vector"
vector 22 mobilityDrones.sensors[7].wlan[0].radio radioMode:vector ETV
attr interpolationmode sample-hold
attr source radioModeChanged
attr title "Radio mode, vector"
vector 23 mobilityDrones.sensors[7].wlan[0].radio radioChannel:vector ETV
attr interpolationmode sample-hold
attr source radioChannelChanged
attr title "Radio channel, vector"
vector 24 mobilityDrones.quads[0].wlan[0].radio receptionState:vector ETV
attr interpolationmode sample-hold
attr source receptionStateChanged
attr title "Radio reception state, vector"
vector 25 mobilityDrones.quads[1].wlan[0].radio receptionState:vector ETV
attr interpolationmode sample-hold
attr source receptionStateChanged
attr title "Radio reception state, vector"
vector 26 mobilityDrones.quads[2].wlan[0].radio receptionState:vector ETV
attr interpolationmode sample-hold
attr source receptionStateChanged
attr title "Radio reception state, vector"
vector 27 mobilityDrones.quads[3].wlan[0].radio receptionState:vector ETV
attr interpolationmode sample-hold
attr source receptionStateChanged
attr title "Radio reception state, vector"
vector 28 mobilityDrones.sensors[0].wlan[0].radio receptionState:vector ETV
attr interpolationmode sample-hold
attr source receptionStateChanged
attr title "Radio reception state, vector"
vector 29 mobilityDrones.sensors[1].wlan[0].radio receptionState:vector ETV
attr interpolationmode sample-hold
attr source receptionStateChanged
attr title "Radio reception state, vector"
vector 30 mobilityDrones.sensors[2].wlan[0].radio receptionState:vector ETV
attr interpolationmode sample-hold
attr source receptionStateChanged
attr title "Radio reception state, vector"
vector 31 mobilityDrones.sensors[3].wlan[0].radio receptionState:vector ETV
attr interpolationmode sample-hold
attr source receptionStateChanged
attr title "Radio reception state, vector"
vector 32 mobilityDrones.sensors[4].wlan[0].radio receptionState:vector ETV
attr interpolationmode sample-hold
attr source receptionStateChanged
attr title "Radio reception state, vector"
vector 33 mobilityDrones.sensors[5].wlan[0].radio receptionState:vector ETV
attr interpolationmode sample-hold
attr source receptionStateChanged
attr title "Radio reception state, vector"
vector 34 mobilityDrones.sensors[6].wlan[0].radio receptionState:vector ETV
attr interpolationmode sample-hold
attr source receptionStateChanged
attr title "Radio reception state, vector"
vector 35 mobilityDrones.sensors[7].wlan[0].radio receptionState:vector ETV
attr interpolationmode sample-hold
attr source receptionStateChanged
attr title "Radio reception state, vector"
vector 36 mobilityDrones.quads[0].wlan[0].mac.dcf.recoveryProcedure contentionWindowChanged:vector ETV
attr interpolationmode sample-hold
attr title "contention window, vector"
vector 37 mobilityDrones.quads[1].wlan[0].mac.dcf.recoveryProcedure contentionWindowChanged:vector ETV
attr interpolationmode sample-hold
attr title "contention window, vector"
vector 38 mobilityDrones.quads[2].wlan[0].mac.dcf.recoveryProcedure contentionWindowChanged:vector ETV
attr interpolationmode sample-hold
attr title "contention window, vector"
vector 39 mobilityDrones.quads[3].wlan[0].mac.dcf.recoveryProcedure contentionWindowChanged:vector ETV
attr interpolationmode sample-hold
attr title "contention window, vector"
vector 40 mobilityDrones.sensors[0].wlan[0].mac.dcf.recoveryProcedure contentionWindowChanged:vector ETV
attr interpolationmode sample-hold
attr title "contention window, vector"
vector 41 mobilityDrones.sensors[1].wlan[0].mac.dcf.recoveryProcedure contentionWindowChanged:vector ETV
attr interpolationmode sample-hold
attr title "contention window, vector"
vector 42 mobilityDrones.sensors[2].wlan[0].mac.dcf.recoveryProcedure contentionWindowChanged:vector ETV
attr interpolationmode sample-hold
attr title "contention window, vector"
vector 43 mobilityDrones.sensors[3].wlan[0].mac.dcf.recoveryProcedure contentionWindowChanged:vector ETV
attr interpolationmode sample-hold
attr title "contention window, vector"
vector 44 mobilityDrones.sensors[4].wlan[0].mac.dcf.recoveryProcedure contentionWindowChanged:vector ETV
attr interpolationmode sample-hold
attr title "contention window, vector"
vector 45 mobilityDrones.sensors[5].wlan[0].mac.dcf.recoveryProcedure contentionWindowChanged:vector ETV
attr interpolationmode sample-hold
attr title "contention window, vector"
vector 46 mobilityDrones.sensors[6].wlan[0].mac.dcf.recoveryProcedure contentionWindowChanged:vector ETV
attr interpolationmode sample-hold
attr title "contention window, vector"
vector 47 mobilityDrones.sensors[7].wlan[0].mac.dcf.recoveryProcedure contentionWindowChanged:vector ETV
attr interpolationmode sample-hold
attr title "contention window, vector"
vector 48 mobilityDrones.quads[0].app[0] packetSent:vector(packetBytes) ETV
attr interpolationmode none
attr source packetSent
attr title "packets sent, vector(packetBytes)"
vector 49 mobilityDrones.quads[0].udp packetSent:vector(packetBytes) ETV
attr interpolationmode none
attr source packetSent
attr title "packets sent, vector(packetBytes)"
vector 50 mobilityDrones.quads[0].lo[0].lo rcvdPkFromHl:vector(packetBytes) ETV
attr interpolationmode none
attr source packetReceivedFromUpper
attr title "packets received from higher layer, vector(packetBytes)"
vector 51 mobilityDrones.quads[0].lo[0].lo passedUpPk:vector(packetBytes) ETV
attr interpolationmode none
attr source packetSentToUpper
attr title "packets passed to higher layer, vector(packetBytes)"
vector 52 mobilityDrones.quads[0].wlan[0].mac packetReceivedFromUpper:vector(packetBytes) ETV
attr interpolationmode none
attr title "packets received from upper layer, vector(packetBytes)"
vector 53 mobilityDrones.quads[0].wlan[0].mac.dcf.channelAccess.pendingQueue packetPushed:vector(packetBytes) ETV
attr interpolationmode none
attr title "packet pushed, vector(packetBytes)"
vector 54 mobilityDrones.quads[0].wlan[0].mac.dcf.channelAccess.pendingQueue queueLength:vector ETV
attr interpolationmode sample-hold
attr source "count(packetPushed) - count(packetPopped) - count(packetRemoved) - count(packetDropped)"
attr title "queue length, vector"
vector 55 mobilityDrones.quads[0].wlan[0].mac.dcf.channelAccess.contention backoffPeriodGenerated:vector ETV
attr interpolationmode none
attr title "backoff periods, vector"
vector 56 mobilityDrones.quads[0].wlan[0].mac.dcf.channelAccess.contention backoffActive:vector ETV
attr interpolationmode sample-hold
attr source count(backoffStarted)-count(backoffStopped)
attr title "backoff active, vector"
vector 57 mobilityDrones.quads[0].udp packetReceived:vector(packetBytes) ETV
attr interpolationmode none
attr source packetReceived
attr title "packets received, vector(packetBytes)"
vector 58 mobilityDrones.quads[0].udp passedUpPk:vector(count) ETV
attr interpolationmode none
attr source packetSentToUpper
attr title "packets passed up, vector(count)"
vector 59 mobilityDrones.quads[0].wlan[0].mac.dcf.channelAccess.pendingQueue packetPopped:vector(packetBytes) ETV
attr interpolationmode none
attr title "packet popped, vector(packetBytes)"
vector 60 mobilityDrones.quads[0].wlan[0].mac.dcf.channelAccess.pendingQueue queueingTime:vector ETV
attr interpolationmode none
attr source queueingTime(packetPopped)
attr title "queueing times, vector"
attr unit s
vector 61 mobilityDrones.quads[0].wlan[0].mac.dcf.channelAccess.inProgressFrames queueLength:vector ETV
attr interpolationmode sample-hold
attr source "count(packetEnqueued) - count(packetDequeued)"
attr title "queue length, vector"
vector 62 mobilityDrones.quads[0].wlan[0].mac.dcf datarateSelected:vector ETV
attr interpolationmode none
attr title "datarates selected, vector"
vector 63 mobilityDrones.quads[0].wlan[0].mac packetSentToLower:vector(packetBytes) ETV
attr interpolationmode none
attr title "packets sent to lower layer, vector(packetBytes)"
vector 64 mobilityDrones.quads[0].wlan[0].mac.dcf frameSequenceActive:vector ETV
attr interpolationmode sample-hold
attr source count(frameSequenceStarted)-count(frameSequenceFinished)
attr title "frame sequence active, vector"
vector 65 mobilityDrones.quads[0].wlan[0].radio transmissionState:vector ETV
attr interpolationmode sample-hold
attr source transmissionStateChanged
attr title "Radio transmission state, vector"
vector 66 mobilityDrones.quads[0].wlan[0].mac.dcf packetSentToPeer:vector(packetBytes) ETV
attr interpolationmode none
attr title "packets sent, vector(packetBytes)"
vector 67 mobilityDrones.quads[0].wlan[0].mac.dcf packetSentToPeerMulticast:vector(packetBytes) ETV
attr interpolationmode none
attr source ieee80211Multicast(packetSentToPeer)
attr title "packets sent: multicast, vector(packetBytes)"
vector 68 mobilityDrones.quads[0].wlan[0].mac.dcf packetSentToPeerWithoutRetry:vector(packetBytes) ETV
attr interpolationmode none
attr source ieee80211NotRetry(packetSentToPeer)
attr title "packets sent: without retry, vector(packetBytes)"
vector 69 mobilityDrones.quads[0].wlan[0].mac.dcf.channelAccess.inProgressFrames queueingTime:vector ETV
attr interpolationmode none
attr source queueingTime(packetDequeued)
attr title "queueing times, vector"
vector 70 mobilityDrones.quads[1].wlan[0].mac packetReceivedFromLower:vector(packetBytes) ETV
attr interpolationmode none
attr title "packets received from lower layer, vector(packetBytes)"
vector 71 mobilityDrones.quads[1].wlan[0].mac.dcf packetReceivedFromPeer:vector(packetBytes) ETV
attr interpolationmode none
attr title "packets received, vector(packetBytes)"
vector 72 mobilityDrones.quads[1].wlan[0].mac.dcf packetReceivedFromPeerMulticast:vector(packetBytes) ETV
attr interpolationmode none
attr source ieee80211Multicast(packetReceivedFromPeer)
attr title "packets received: multicast, vector(packetBytes)"
vector 73 mobilityDrones.quads[1].wlan[0].mac.dcf packetReceivedFromPeerWithoutRetry:vector(packetBytes) ETV
attr interpolationmode none
attr source ieee80211NotRetry(packetReceivedFromPeer)
attr title "packets received: without retry, vector(packetBytes)"
vector 74 mobilityDrones.quads[1].wlan[0].mac packetSentToUpper:vector(packetBytes) ETV
attr interpolationmode none
attr title "packets sent to upper layer, vector(packetBytes)"
vector 75 mobilityDrones.quads[2].wlan[0].mac packetReceivedFromLower:vector(packetBytes) ETV
attr interpolationmode none
attr title "packets received from lower layer, vector(packetBytes)"
vector 76 mobilityDrones.quads[2].wlan[0].mac.dcf packetReceivedFromPeer:vector(packetBytes) ETV
attr interpolationmode none
attr title "packets received, vector(packetBytes)"
vector 77 mobilityDrones.quads[2].wlan[0].mac.dcf packetReceivedFromPeerMulticast:vector(packetBytes) ETV
attr interpolationmode none
attr source ieee80211Multicast(packetReceivedFromPeer)
attr title "packets received: multicast, vector(packetBytes)"
vector 78 mobilityDrones.quads[2].wlan[0].mac.dcf packetReceivedFromPeerWithoutRetry:vector(packetBytes) ETV
attr interpolationmode none
attr source ieee80211NotRetry(packetReceivedFromPeer)
attr title "packets received: without retry, vector(packetBytes)"
vector 79 mobilityDrones.quads[2].wlan[0].mac packetSentToUpper:vector(packetBytes) ETV
attr interpolationmode none
attr title "packets sent to upper layer, vector(packetBytes)"
vector 80 mobilityDrones.quads[3].wlan[0].mac packetReceivedFromLower:vector(packetBytes) ETV
attr interpolationmode none
attr title "packets received from lower layer, vector(packetBytes)"
vector 81 mobilityDrones.quads[3].wlan[0].mac.dcf packetReceivedFromPeer:vector(packetBytes) ETV
attr interpolationmode none
attr title "packets received, vector(packetBytes)"
vector 82 mobilityDrones.quads[3].wlan[0].mac.dcf packetReceivedFromPeerMulticast:vector(packetBytes) ETV
attr interpolationmode none
attr source ieee80211Multicast(packetReceivedFromPeer)
attr title "packets received: multicast, vector(packetBytes)"
vector 83 mobilityDrones.quads[3].wlan[0].mac.dcf packetReceivedFromPeerWithoutRetry:vector(packetBytes) ETV
attr interpolationmode none
attr source ieee80211NotRetry(packetReceivedFromPeer)
attr title "packets received: without retry, vector(packetBytes)"
vector 84 mobilityDrones.quads[3].wlan[0].mac packetSentToUpper:vector(packetBytes) ETV
attr interpolationmode none
attr title "packets sent to upper layer, vector(packetBytes)"
vector 85 mobilityDrones.sensors[0].app[0] packetSent:vector(packetBytes) ETV
attr interpolationmode none
attr source packetSent
attr title "packets sent, vector(packetBytes)"
vector 86 mobilityDrones.sensors[0].udp packetSent:vector(packetBytes) ETV
attr interpolationmode none
attr source packetSent
attr title "packets sent, vector(packetBytes)"
vector 87 mobilityDrones.sensors[0].ipv4.arp arpRequestSent:vector(packetBytes) ETV
attr source arpRequestSent
attr title "ARP request sent, vector(packetBytes)"
vector 88 mobilityDrones.sensors[0].wlan[0].mac packetReceivedFromUpper:vector(packetBytes) ETV
attr interpolationmode none
attr title "packets received from upper layer, vector(packetBytes)"
vector 89 mobilityDrones.sensors[0].wlan[0].mac.dcf.channelAccess.pendingQueue packetPushed:vector(packetBytes) ETV
attr interpolationmode none
attr title "packet pushed, vector(packetBytes)"
vector 90 mobilityDrones.sensors[0].wlan[0].mac.dcf.channelAccess.pendingQueue queueLength:vector ETV
attr interpolationmode sample-hold
attr source "count(packetPushed) - count(packetPopped) - count(packetRemoved) - count(packetDropped)"
attr title "queue length, vector"
vector 91 mobilityDrones.sensors[0].wlan[0].mac.dcf.channelAccess.contention backoffPeriodGenerated:vector ETV
attr interpolationmode none
attr title "backoff periods, vector"
vector 92 mobilityDrones.sensors[0].wlan[0].mac.dcf.channelAccess.contention backoffActive:vector ETV
attr interpolationmode sample-hold
attr source count(backoffStarted)-count(backoffStopped)
attr title "backoff active, vector"
vector 93 mobilityDrones.sensors[0].wlan[0].mac.dcf.channelAccess.pendingQueue packetPopped:vector(packetBytes) ETV
attr interpolationmode none
attr title "packet popped, vector(packetBytes)"
vector 94 mobilityDrones.sensors[0].wlan[0].mac.dcf.channelAccess.pendingQueue queueingTime:vector ETV
attr interpolationmode none
attr source queueingTime(packetPopped)
attr title "queueing times, vector"
attr unit s
vector 95 mobilityDrones.sensors[0].wlan[0].mac.dcf.channelAccess.inProgressFrames queueLength:vector ETV
attr interpolationmode sample-hold
attr source "count(packetEnqueued) - count(packetDequeued)"
attr title "queue length, vector"
vector 96 mobilityDrones.sensors[0].wlan[0].mac.dcf datarateSelected:vector ETV
attr interpolationmode none
attr title "datarates selected, vector"
vector 97 mobilityDrones.sensors[0].wlan[0].mac packetSentToLower:vector(packetBytes) ETV
attr interpolationmode none
attr title "packets sent to lower layer, vector(packetBytes)"
vector 98 mobilityDrones.sensors[0].wlan[0].mac.dcf frameSequenceActive:vector ETV
attr interpolationmode sample-hold
attr source count(frameSequenceStarted)-count(frameSequenceFinished)
attr title "frame sequence active, vector"
vector 99 mobilityDrones.sensors[0].wlan[0].radio transmissionState:vector ETV
attr interpolationmode sample-hold
attr source transmissionStateChanged
attr title "Radio transmission state, vector"
vector 100 mobilityDrones.sensors[0].wlan[0].mac.dcf packetSentToPeer:vector(packetBytes) ETV
attr interpolationmode none
attr title "packets sent, vector(packetBytes)"
vector 101 mobilityDrones.sensors[0].wlan[0].mac.dcf packetSentToPeerMulticast:vector(packetBytes) ETV
attr interpolationmode none
attr source ieee80211Multicast(packetSentToPeer)
attr title "packets sent: multicast, vector(packetBytes)"
vector 102 mobilityDrones.sensors[0].wlan[0].mac.dcf packetSentToPeerBroadcast:vector(packetBytes) ETV
attr interpolationmode none
attr source ieee80211Broadcast(packetSentToPeer)
attr title "packets sent: broadcast , vector(packetBytes)"
vector 103 mobilityDrones.sensors[0].wlan[0].mac.dcf packetSentToPeerWithoutRetry:vector(packetBytes) ETV
attr interpolationmode none
attr source ieee80211NotRetry(packetSentToPeer)
attr title "packets sent: without retry, vector(packetBytes)"
vector 104 mobilityDrones.sensors[0].wlan[0].mac.dcf.channelAccess.inProgressFrames queueingTime:vector ETV
attr interpolationmode none
attr source queueingTime(packetDequeued)
attr title "queueing times, vector"
vector 105 mobilityDrones.sensors[7].app[0] packetSent:vector(packetBytes) ETV
attr interpolationmode none
attr source packetSent
attr title "packets sent, vector(packetBytes)"
vector 106 mobilityDrones.sensors[7].udp packetSent:vector(packetBytes) ETV
attr interpolationmode none
attr source packetSent
attr title "packets sent, vector(packetBytes)"
vector 107 mobilityDrones.sensors[7].ipv4.arp arpRequestSent:vector(packetBytes) ETV
attr source arpRequestSent
attr title "ARP request sent, vector(packetBytes)"
vector 108 mobilityDrones.sensors[7].wlan[0].mac packetReceivedFromUpper:vector(packetBytes) ETV
attr interpolationmode none
attr title "packets received from upper layer, vector(packetBytes)"
vector 109 mobilityDrones.sensors[7].wlan[0].mac.dcf.channelAccess.pendingQueue packetPushed:vector(packetBytes) ETV
attr interpolationmode none
attr title "packet pushed, vector(packetBytes)"
vector 110 mobilityDrones.sensors[7].wlan[0].mac.dcf.channelAccess.pendingQueue queueLength:vector ETV
attr interpolationmode sample-hold
attr source "count(packetPushed) - count(packetPopped) - count(packetRemoved) - count(packetDropped)"
attr title "queue length, vector"
vector 111 mobilityDrones.sensors[7].wlan[0].mac.dcf.channelAccess.contention backoffPeriodGenerated:vector ETV
attr interpolationmode none
attr title "backoff periods, vector"
vector 112 mobilityDrones.sensors[7].wlan[0].mac.dcf.channelAccess.contention backoffActive:vector ETV
attr interpolationmode sample-hold
attr source count(backoffStarted)-count(backoffStopped)
attr title "backoff active, vector"
vector 113 mobilityDrones.sensors[7].wlan[0].mac.dcf.channelAccess.pendingQueue packetPopped:vector(packetBytes) ETV
attr interpolationmode none
attr title "packet popped, vector(packetBytes)"
vector 114 mobilityDrones.sensors[7].wlan[0].mac.dcf.channelAccess.pendingQueue queueingTime:vector ETV
attr interpolationmode none
attr source queueingTime(packetPopped)
attr title "queueing times, vector"
attr unit s
vector 115 mobilityDrones.sensors[7].wlan[0].mac.dcf.channelAccess.inProgressFrames queueLength:vector ETV
attr interpolationmode sample-hold
attr source "count(packetEnqueued) - count(packetDequeued)"
attr title "queue length, vector"
vector 116 mobilityDrones.sensors[7].wlan[0].mac.dcf datarateSelected:vector ETV
attr interpolationmode none
attr title "datarates selected, vector"
vector 117 mobilityDrones.sensors[7].wlan[0].mac packetSentToLower:vector(packetBytes) ETV
attr interpolationmode none
attr title "packets sent to lower layer, vector(packetBytes)"
vector 118 mobilityDrones.sensors[7].wlan[0].mac.dcf frameSequenceActive:vector ETV
attr interpolationmode sample-hold
attr source count(frameSequenceStarted)-count(frameSequenceFinished)
attr title "frame sequence active, vector"
vector 119 mobilityDrones.sensors[7].wlan[0].radio transmissionState:vector ETV
attr interpolationmode sample-hold
attr source transmissionStateChanged
attr title "Radio transmission state, vector"
vector 120 mobilityDrones.sensors[7].wlan[0].mac.dcf packetSentToPeer:vector(packetBytes) ETV
attr interpolationmode none
attr title "packets sent, vector(packetBytes)"
vector 121 mobilityDrones.sensors[7].wlan[0].mac.dcf packetSentToPeerMulticast:vector(packetBytes) ETV
attr interpolationmode none
attr source ieee80211Multicast(packetSentToPeer)
attr title "packets sent: multicast, vector(packetBytes)"
vector 122 mobilityDrones.sensors[7].wlan[0].mac.dcf packetSentToPeerBroadcast:vector(packetBytes) ETV
attr interpolationmode none
attr source ieee80211Broadcast(packetSentToPeer)
attr title "packets sent: broadcast , vector(packetBytes)"
vector 123 mobilityDrones.sensors[7].wlan[0].mac.dcf packetSentToPeerWithoutRetry:vector(packetBytes) ETV
attr interpolationmode none
attr source ieee80211NotRetry(packetSentToPeer)
attr title "packets sent: without retry, vector(packetBytes)"
vector 124 mobilityDrones.sensors[7].wlan[0].mac.dcf.channelAccess.inProgressFrames queueingTime:vector ETV
attr interpolationmode none
attr source queueingTime(packetDequeued)
attr title "queueing times, vector"
vector 125 mobilityDrones.sensors[2].app[0] packetSent:vector(packetBytes) ETV
attr interpolationmode none
attr source packetSent
attr title "packets sent, vector(packetBytes)"
vector 126 mobilityDrones.sensors[2].udp packetSent:vector(packetBytes) ETV
attr interpolationmode none
attr source packetSent
attr title "packets sent, vector(packetBytes)"
vector 127 mobilityDrones.sensors[2].ipv4.arp arpRequestSent:vector(packetBytes) ETV
attr source arpRequestSent
attr title "ARP request sent, vector(packetBytes)"
vector 128 mobilityDrones.sensors[2].wlan[0].mac packetReceivedFromUpper:vector(packetBytes) ETV
attr interpolationmode none
attr title "packets received from upper layer, vector(packetBytes)"
vector 129 mobilityDrones.sensors[2].wlan[0].mac.dcf.channelAccess.pendingQueue packetPushed:vector(packetBytes) ETV
attr interpolationmode none
attr title "packet pushed, vector(packetBytes)"
vector 130 mobilityDrones.sensors[2].wlan[0].mac.dcf.channelAccess.pendingQueue queueLength:vector ETV
attr interpolationmode sample-hold
attr source "count(packetPushed) - count(packetPopped) - count(packetRemoved) - count(packetDropped)"
attr title "queue length, vector"
vector 131 mobilityDrones.sensors[2].wlan[0].mac.dcf.channelAccess.contention backoffPeriodGenerated:vector ETV
attr interpolationmode none
attr title "backoff periods, vector"
vector 132 mobilityDrones.sensors[2].wlan[0].mac.dcf.channelAccess.contention backoffActive:vector ETV
attr interpolationmode sample-hold
attr source count(backoffStarted)-count(backoffStopped)
attr title "backoff active, vector"
vector 133 mobilityDrones.sensors[2].wlan[0].mac.dcf.channelAccess.pendingQueue packetPopped:vector(packetBytes) ETV
attr interpolationmode none
attr title "packet popped, vector(packetBytes)"
vector 134 mobilityDrones.sensors[2].wlan[0].mac.dcf.channelAccess.pendingQueue queueingTime:vector ETV
attr interpolationmode none
attr source queueingTime(packetPopped)
attr title "queueing times, vector"
attr unit s
vector 135 mobilityDrones.sensors[2].wlan[0].mac.dcf.channelAccess.inProgressFrames queueLength:vector ETV
attr interpolationmode sample-hold
attr source "count(packetEnqueued) - count(packetDequeued)"
attr title "queue length, vector"
vector 136 mobilityDrones.sensors[2].wlan[0].mac.dcf datarateSelected:vector ETV
attr interpolationmode none
attr title "datarates selected, vector"
vector 137 mobilityDrones.sensors[2].wlan[0].mac packetSentToLower:vector(packetBytes) ETV
attr interpolationmode none
attr title "packets sent to lower layer, vector(packetBytes)"
vector 138 mobilityDrones.sensors[2].wlan[0].mac.dcf frameSequenceActive:vector ETV
attr interpolationmode sample-hold
attr source count(frameSequenceStarted)-count(frameSequenceFinished)
attr title "frame sequence active, vector"
vector 139 mobilityDrones.sensors[2].wlan[0].radio transmissionState:vector ETV
attr interpolationmode sample-hold
attr source transmissionStateChanged
attr title "Radio transmission state, vector"
vector 140 mobilityDrones.sensors[2].wlan[0].mac.dcf packetSentToPeer:vector(packetBytes) ETV
attr interpolationmode none
attr title "packets sent, vector(packetBytes)"
vector 141 mobilityDrones.sensors[2].wlan[0].mac.dcf packetSentToPeerMulticast:vector(packetBytes) ETV
attr interpolationmode none
attr source ieee80211Multicast(packetSentToPeer)
attr title "packets sent: multicast, vector(packetBytes)"
vector 142 mobilityDrones.sensors[2].wlan[0].mac.dcf packetSentToPeerBroadcast:vector(packetBytes) ETV
attr interpolationmode none
attr source ieee80211Broadcast(packetSentToPeer)
attr title "packets sent: broadcast , vector(packetBytes)"
vector 143 mobilityDrones.sensors[2].wlan[0].mac.dcf packetSentToPeerWithoutRetry:vector(packetBytes) ETV
attr interpolationmode none
attr source ieee80211NotRetry(packetSentToPeer)
attr title "packets sent: without retry, vector(packetBytes)"
vector 144 mobilityDrones.sensors[2].wlan[0].mac.dcf.channelAccess.inProgressFrames queueingTime:vector ETV
attr interpolationmode none
attr source queueingTime(packetDequeued)
attr title "queueing times, vector"
vector 145 mobilityDrones.sensors[4].wlan[0].mac packetReceivedFromLower:vector(packetBytes) ETV
attr interpolationmode none
attr title "packets received from lower layer, vector(packetBytes)"
vector 146 mobilityDrones.sensors[4].wlan[0].mac.dcf packetReceivedFromPeer:vector(packetBytes) ETV
attr interpolationmode none
attr title "packets received, vector(packetBytes)"
vector 147 mobilityDrones.sensors[4].wlan[0].mac.dcf packetReceivedFromPeerMulticast:vector(packetBytes) ETV
attr interpolationmode none
attr source ieee80211Multicast(packetReceivedFromPeer)
attr title "packets received: multicast, vector(packetBytes)"
vector 148 mobilityDrones.sensors[4].wlan[0].mac.dcf packetReceivedFromPeerBroadcast:vector(packetBytes) ETV
attr interpolationmode none
attr source ieee80211Broadcast(packetReceivedFromPeer)
attr title "packets received: broadcast, vector(packetBytes)"
vector 149 mobilityDrones.sensors[4].wlan[0].mac.dcf packetReceivedFromPeerWithoutRetry:vector(packetBytes) ETV
attr interpolationmode none
attr source ieee80211NotRetry(packetReceivedFromPeer)
attr title "packets received: without retry, vector(packetBytes)"
vector 150 mobilityDrones.sensors[4].wlan[0].mac packetSentToUpper:vector(packetBytes) ETV
attr interpolationmode none
attr title "packets sent to upper layer, vector(packetBytes)"
vector 151 mobilityDrones.sensors[6].app[0] packetSent:vector(packetBytes) ETV
attr interpolationmode none
attr source packetSent
attr title "packets sent, vector(packetBytes)"
vector 152 mobilityDrones.sensors[6].udp packetSent:vector(packetBytes) ETV
attr interpolationmode none
attr source packetSent
attr title "packets sent, vector(packetBytes)"
vector 153 mobilityDrones.sensors[6].ipv4.arp arpRequestSent:vector(packetBytes) ETV
attr source arpRequestSent
attr title "ARP request sent, vector(packetBytes)"
vector 154 mobilityDrones.sensors[6].wlan[0].mac packetReceivedFromUpper:vector(packetBytes) ETV
attr interpolationmode none
attr title "packets received from upper layer, vector(packetBytes)"
vector 155 mobilityDrones.sensors[6].wlan[0].mac.dcf.channelAccess.pendingQueue packetPushed:vector(packetBytes) ETV
attr interpolationmode none
attr title "packet pushed, vector(packetBytes)"
vector 156 mobilityDrones.sensors[6].wlan[0].mac.dcf.channelAccess.pendingQueue queueLength:vector ETV
attr interpolationmode sample-hold
attr source "count(packetPushed) - count(packetPopped) - count(packetRemoved) - count(packetDropped)"
attr title "queue length, vector"
vector 157 mobilityDrones.sensors[6].wlan[0].mac.dcf.channelAccess.contention backoffPeriodGenerated:vector ETV
attr interpolationmode none
attr title "backoff periods, vector"
vector 158 mobilityDrones.sensors[6].wlan[0].mac.dcf.channelAccess.contention backoffActive:vector ETV
attr interpolationmode sample-hold
attr source count(backoffStarted)-count(backoffStopped)
attr title "backoff active, vector"
vector 159 mobilityDrones.sensors[6].wlan[0].mac.dcf.channelAccess.pendingQueue packetPopped:vector(packetBytes) ETV
attr interpolationmode none
attr title "packet popped, vector(packetBytes)"
vector 160 mobilityDrones.sensors[6].wlan[0].mac.dcf.channelAccess.pendingQueue queueingTime:vector ETV
attr interpolationmode none
attr source queueingTime(packetPopped)
attr title "queueing times, vector"
attr unit s
vector 161 mobilityDrones.sensors[6].wlan[0].mac.dcf.channelAccess.inProgressFrames queueLength:vector ETV
attr interpolationmode sample-hold
attr source "count(packetEnqueued) - count(packetDequeued)"
attr title "queue length, vector"
vector 162 mobilityDrones.sensors[6].wlan[0].mac.dcf datarateSelected:vector ETV
attr interpolationmode none
attr title "datarates selected, vector"
vector 163 mobilityDrones.sensors[6].wlan[0].mac packetSentToLower:vector(packetBytes) ETV
attr interpolationmode none
attr title "packets sent to lower layer, vector(packetBytes)"
vector 164 mobilityDrones.sensors[6].wlan[0].mac.dcf frameSequenceActive:vector ETV
attr interpolationmode sample-hold
attr source count(frameSequenceStarted)-count(frameSequenceFinished)
attr title "frame sequence active, vector"
vector 165 mobilityDrones.sensors[6].wlan[0].radio transmissionState:vector ETV
attr interpolationmode sample-hold
attr source transmissionStateChanged
attr title "Radio transmission state, vector"
vector 166 mobilityDrones.sensors[6].wlan[0].mac.dcf packetSentToPeer:vector(packetBytes) ETV
attr interpolationmode none
attr title "packets sent, vector(packetBytes)"
vector 167 mobilityDrones.sensors[6].wlan[0].mac.dcf packetSentToPeerMulticast:vector(packetBytes) ETV
attr interpolationmode none
attr source ieee80211Multicast(packetSentToPeer)
attr title "packets sent: multicast, vector(packetBytes)"
vector 168 mobilityDrones.sensors[6].wlan[0].mac.dcf packetSentToPeerBroadcast:vector(packetBytes) ETV
attr interpolationmode none
attr source ieee80211Broadcast(packetSentToPeer)
attr title "packets sent: broadcast , vector(packetBytes)"
vector 169 mobilityDrones.sensors[6].wlan[0].mac.dcf packetSentToPeerWithoutRetry:vector(packetBytes) ETV
attr interpolationmode none
attr source ieee80211NotRetry(packetSentToPeer)
attr title "packets sent: without retry, vector(packetBytes)"
vector 170 mobilityDrones.sensors[6].wlan[0].mac.dcf.channelAccess.inProgressFrames queueingTime:vector ETV
attr interpolationmode none
attr source queueingTime(packetDequeued)
attr title "queueing times, vector"
vector 171 mobilityDrones.sensors[3].wlan[0].mac packetReceivedFromLower:vector(packetBytes) ETV
attr interpolationmode none
attr title "packets received from lower layer, vector(packetBytes)"
vector 172 mobilityDrones.sensors[3].wlan[0].mac.dcf packetReceivedFromPeer:vector(packetBytes) ETV
attr interpolationmode none
attr title "packets received, vector(packetBytes)"
vector 173 mobilityDrones.sensors[3].wlan[0].mac.dcf packetReceivedFromPeerMulticast:vector(packetBytes) ETV
attr interpolationmode none
attr source ieee80211Multicast(packetReceivedFromPeer)
attr title "packets received: multicast, vector(packetBytes)"
vector 174 mobilityDrones.sensors[3].wlan[0].mac.dcf packetReceivedFromPeerBroadcast:vector(packetBytes) ETV
attr interpolationmode none
attr source ieee80211Broadcast(packetReceivedFromPeer)
attr title "packets received: broadcast, vector(packetBytes)"
vector 175 mobilityDrones.sensors[3].wlan[0].mac.dcf packetReceivedFromPeerWithoutRetry:vector(packetBytes) ETV
attr interpolationmode none
attr source ieee80211NotRetry(packetReceivedFromPeer)
attr title "packets received: without retry, vector(packetBytes)"
vector 176 mobilityDrones.sensors[3].wlan[0].mac packetSentToUpper:vector(packetBytes) ETV
attr interpolationmode none
attr title "packets sent to upper layer, vector(packetBytes)"
vector 177 mobilityDrones.sensors[5].app[0] packetSent:vector(packetBytes) ETV
attr interpolationmode none
attr source packetSent
attr title "packets sent, vector(packetBytes)"
vector 178 mobilityDrones.sensors[5].udp packetSent:vector(packetBytes) ETV
attr interpolationmode none
attr source packetSent
attr title "packets sent, vector(packetBytes)"
vector 179 mobilityDrones.sensors[5].ipv4.arp arpRequestSent:vector(packetBytes) ETV
attr source arpRequestSent
attr title "ARP request sent, vector(packetBytes)"
vector 180 mobilityDrones.sensors[5].wlan[0].mac packetReceivedFromUpper:vector(packetBytes) ETV
attr interpolationmode none
attr title "packets received from upper layer, vector(packetBytes)"
vector 181 mobilityDrones.sensors[5].wlan[0].mac.dcf.channelAccess.pendingQueue packetPushed:vector(packetBytes) ETV
attr interpolationmode none
attr title "packet pushed, vector(packetBytes)"
vector 182 mobilityDrones.sensors[5].wlan[0].mac.dcf.channelAccess.pendingQueue queueLength:vector ETV
attr interpolationmode sample-hold
attr source "count(packetPushed) - count(packetPopped) - count(packetRemoved) - count(packetDropped)"
attr title "queue length, vector"
vector 183 mobilityDrones.sensors[5].wlan[0].mac.dcf.channelAccess.contention backoffPeriodGenerated:vector ETV
attr interpolationmode none
attr title "backoff periods, vector"
vector 184 mobilityDrones.sensors[5].wlan[0].mac.dcf.channelAccess.contention backoffActive:vector ETV
attr interpolationmode sample-hold
attr source count(backoffStarted)-count(backoffStopped)
attr title "backoff active, vector"
vector 185 mobilityDrones.sensors[5].wlan[0].mac.dcf.channelAccess.pendingQueue packetPopped:vector(packetBytes) ETV
attr interpolationmode none
attr title "packet popped, vector(packetBytes)"
vector 186 mobilityDrones.sensors[5].wlan[0].mac.dcf.channelAccess.pendingQueue queueingTime:vector ETV
attr interpolationmode none
attr source queueingTime(packetPopped)
attr title "queueing times, vector"
attr unit s
vector 187 mobilityDrones.sensors[5].wlan[0].mac.dcf.channelAccess.inProgressFrames queueLength:vector ETV
attr interpolationmode sample-hold
attr source "count(packetEnqueued) - count(packetDequeued)"
attr title "queue length, vector"
vector 188 mobilityDrones.sensors[5].wlan[0].mac.dcf datarateSelected:vector ETV
attr interpolationmode none
attr title "datarates selected, vector"
vector 189 mobilityDrones.sensors[5].wlan[0].mac packetSentToLower:vector(packetBytes) ETV
attr interpolationmode none
attr title "packets sent to lower layer, vector(packetBytes)"
vector 190 mobilityDrones.sensors[5].wlan[0].mac.dcf frameSequenceActive:vector ETV
attr interpolationmode sample-hold
attr source count(frameSequenceStarted)-count(frameSequenceFinished)
attr title "frame sequence active, vector"
vector 191 mobilityDrones.sensors[5].wlan[0].radio transmissionState:vector ETV
attr interpolationmode sample-hold
attr source transmissionStateChanged
attr title "Radio transmission state, vector"
vector 192 mobilityDrones.sensors[5].wlan[0].mac.dcf packetSentToPeer:vector(packetBytes) ETV
attr interpolationmode none
attr title "packets sent, vector(packetBytes)"
vector 193 mobilityDrones.sensors[5].wlan[0].mac.dcf packetSentToPeerMulticast:vector(packetBytes) ETV
attr interpolationmode none
attr source ieee80211Multicast(packetSentToPeer)
attr title "packets sent: multicast, vector(packetBytes)"
vector 194 mobilityDrones.sensors[5].wlan[0].mac.dcf packetSentToPeerBroadcast:vector(packetBytes) ETV
attr interpolationmode none
attr source ieee80211Broadcast(packetSentToPeer)
attr title "packets sent: broadcast , vector(packetBytes)"
vector 195 mobilityDrones.sensors[5].wlan[0].mac.dcf packetSentToPeerWithoutRetry:vector(packetBytes) ETV
attr interpolationmode none
attr source ieee80211NotRetry(packetSentToPeer)
attr title "packets sent: without retry, vector(packetBytes)"
vector 196 mobilityDrones.sensors[5].wlan[0].mac.dcf.channelAccess.inProgressFrames queueingTime:vector ETV
attr interpolationmode none
attr source queueingTime(packetDequeued)
attr title "queueing times, vector"
vector 197 mobilityDrones.sensors[1].app[0] packetSent:vector(packetBytes) ETV
attr interpolationmode none
attr source packetSent
attr title "packets sent, vector(packetBytes)"
vector 198 mobilityDrones.sensors[1].udp packetSent:vector(packetBytes) ETV
attr interpolationmode none
attr source packetSent
attr title "packets sent, vector(packetBytes)"
vector 199 mobilityDrones.sensors[1].ipv4.arp arpRequestSent:vector(packetBytes) ETV
attr source arpRequestSent
attr title "ARP request sent, vector(packetBytes)"
vector 200 mobilityDrones.sensors[1].wlan[0].mac packetReceivedFromUpper:vector(packetBytes) ETV
attr interpolationmode none
attr title "packets received from upper layer, vector(packetBytes)"
vector 201 mobilityDrones.sensors[1].wlan[0].mac.dcf.channelAccess.pendingQueue packetPushed:vector(packetBytes) ETV
attr interpolationmode none
attr title "packet pushed, vector(packetBytes)"
vector 202 mobilityDrones.sensors[1].wlan[0].mac.dcf.channelAccess.pendingQueue queueLength:vector ETV
attr interpolationmode sample-hold
attr source "count(packetPushed) - count(packetPopped) - count(packetRemoved) - count(packetDropped)"
attr title "queue length, vector"
vector 203 mobilityDrones.sensors[1].wlan[0].mac.dcf.channelAccess.contention backoffPeriodGenerated:vector ETV
attr interpolationmode none
attr title "backoff periods, vector"
vector 204 mobilityDrones.sensors[1].wlan[0].mac.dcf.channelAccess.contention backoffActive:vector ETV
attr interpolationmode sample-hold
attr source count(backoffStarted)-count(backoffStopped)
attr title "backoff active, vector"
vector 205 mobilityDrones.sensors[1].wlan[0].mac.dcf.channelAccess.pendingQueue packetPopped:vector(packetBytes) ETV
attr interpolationmode none
attr title "packet popped, vector(packetBytes)"
vector 206 mobilityDrones.sensors[1].wlan[0].mac.dcf.channelAccess.pendingQueue queueingTime:vector ETV
attr interpolationmode none
attr source queueingTime(packetPopped)
attr title "queueing times, vector"
attr unit s
vector 207 mobilityDrones.sensors[1].wlan[0].mac.dcf.channelAccess.inProgressFrames queueLength:vector ETV
attr interpolationmode sample-hold
attr source "count(packetEnqueued) - count(packetDequeued)"
attr title "queue length, vector"
vector 208 mobilityDrones.sensors[1].wlan[0].mac.dcf datarateSelected:vector ETV
attr interpolationmode none
attr title "datarates selected, vector"
vector 209 mobilityDrones.sensors[1].wlan[0].mac packetSentToLower:vector(packetBytes) ETV
attr interpolationmode none
attr title "packets sent to lower layer, vector(packetBytes)"
vector 210 mobilityDrones.sensors[1].wlan[0].mac.dcf frameSequenceActive:vector ETV
attr interpolationmode sample-hold
attr source count(frameSequenceStarted)-count(frameSequenceFinished)
attr title "frame sequence active, vector"
vector 211 mobilityDrones.sensors[1].wlan[0].radio transmissionState:vector ETV
attr interpolationmode sample-hold
attr source transmissionStateChanged
attr title "Radio transmission state, vector"
vector 212 mobilityDrones.sensors[1].wlan[0].mac.dcf packetSentToPeer:vector(packetBytes) ETV
attr interpolationmode none
attr title "packets sent, vector(packetBytes)"
vector 213 mobilityDrones.sensors[1].wlan[0].mac.dcf packetSentToPeerMulticast:vector(packetBytes) ETV
attr interpolationmode none
attr source ieee80211Multicast(packetSentToPeer)
attr title "packets sent: multicast, vector(packetBytes)"
vector 214 mobilityDrones.sensors[1].wlan[0].mac.dcf packetSentToPeerBroadcast:vector(packetBytes) ETV
attr interpolationmode none
attr source ieee80211Broadcast(packetSentToPeer)
attr title "packets sent: broadcast , vector(packetBytes)"
vector 215 mobilityDrones.sensors[1].wlan[0].mac.dcf packetSentToPeerWithoutRetry:vector(packetBytes) ETV
attr interpolationmode none
attr source ieee80211NotRetry(packetSentToPeer)
attr title "packets sent: without retry, vector(packetBytes)"
vector 216 mobilityDrones.sensors[1].wlan[0].mac.dcf.channelAccess.inProgressFrames queueingTime:vector ETV
attr interpolationmode none
attr source queueingTime(packetDequeued)
attr title "queueing times, vector"
vector 217 mobilityDrones.sensors[3].wlan[0].mac packetDrop:vector(packetBytes) ETV
attr interpolationmode none
attr source packetDropped
attr title "packet drops, vector(packetBytes)"
vector 218 mobilityDrones.sensors[3].wlan[0].mac packetDropIncorrectlyReceived:vector(packetBytes) ETV
attr interpolationmode none
attr source packetDropReasonIsIncorrectlyReceived(packetDropped)
attr title "packet drops: incorrectly received, vector(packetBytes)"
vector 219 mobilityDrones.sensors[4].app[0] packetSent:vector(packetBytes) ETV
attr interpolationmode none
attr source packetSent
attr title "packets sent, vector(packetBytes)"
vector 220 mobilityDrones.sensors[4].udp packetSent:vector(packetBytes) ETV
attr interpolationmode none
attr source packetSent
attr title "packets sent, vector(packetBytes)"
vector 221 mobilityDrones.sensors[4].ipv4.arp arpRequestSent:vector(packetBytes) ETV
attr source arpRequestSent
attr title "ARP request sent, vector(packetBytes)"
vector 222 mobilityDrones.sensors[4].wlan[0].mac packetReceivedFromUpper:vector(packetBytes) ETV
attr interpolationmode none
attr title "packets received from upper layer, vector(packetBytes)"
vector 223 mobilityDrones.sensors[4].wlan[0].mac.dcf.channelAccess.pendingQueue packetPushed:vector(packetBytes) ETV
attr interpolationmode none
attr title "packet pushed, vector(packetBytes)"
vector 224 mobilityDrones.sensors[4].wlan[0].mac.dcf.channelAccess.pendingQueue queueLength:vector ETV
attr interpolationmode sample-hold
attr source "count(packetPushed) - count(packetPopped) - count(packetRemoved) - count(packetDropped)"
attr title "queue length, vector"
vector 225 mobilityDrones.sensors[4].wlan[0].mac.dcf.channelAccess.contention backoffPeriodGenerated:vector ETV
attr interpolationmode none
attr title "backoff periods, vector"
vector 226 mobilityDrones.sensors[4].wlan[0].mac.dcf.channelAccess.contention backoffActive:vector ETV
attr interpolationmode sample-hold
attr source count(backoffStarted)-count(backoffStopped)
attr title "backoff active, vector"
vector 227 mobilityDrones.sensors[4].wlan[0].mac.dcf.channelAccess.pendingQueue packetPopped:vector(packetBytes) ETV
attr interpolationmode none
attr title "packet popped, vector(packetBytes)"
vector 228 mobilityDrones.sensors[4].wlan[0].mac.dcf.channelAccess.pendingQueue queueingTime:vector ETV
attr interpolationmode none
attr source queueingTime(packetPopped)
attr title "queueing times, vector"
attr unit s
vector 229 mobilityDrones.sensors[4].wlan[0].mac.dcf.channelAccess.inProgressFrames queueLength:vector ETV
attr interpolationmode sample-hold
attr source "count(packetEnqueued) - count(packetDequeued)"
attr title "queue length, vector"
vector 230 mobilityDrones.sensors[4].wlan[0].mac.dcf datarateSelected:vector ETV
attr interpolationmode none
attr title "datarates selected, vector"
vector 231 mobilityDrones.sensors[4].wlan[0].mac packetSentToLower:vector(packetBytes) ETV
attr interpolationmode none
attr title "packets sent to lower layer, vector(packetBytes)"
vector 232 mobilityDrones.sensors[4].wlan[0].mac.dcf frameSequenceActive:vector ETV
attr interpolationmode sample-hold
attr source count(frameSequenceStarted)-count(frameSequenceFinished)
attr title "frame sequence active, vector"
vector 233 mobilityDrones.sensors[4].wlan[0].radio transmissionState:vector ETV
attr interpolationmode sample-hold
attr source transmissionStateChanged
attr title "Radio transmission state, vector"
vector 234 mobilityDrones.sensors[4].wlan[0].mac.dcf packetSentToPeer:vector(packetBytes) ETV
attr interpolationmode none
attr title "packets sent, vector(packetBytes)"
vector 235 mobilityDrones.sensors[4].wlan[0].mac.dcf packetSentToPeerMulticast:vector(packetBytes) ETV
attr interpolationmode none
attr source ieee80211Multicast(packetSentToPeer)
attr title "packets sent: multicast, vector(packetBytes)"
vector 236 mobilityDrones.sensors[4].wlan[0].mac.dcf packetSentToPeerBroadcast:vector(packetBytes) ETV
attr interpolationmode none
attr source ieee80211Broadcast(packetSentToPeer)
attr title "packets sent: broadcast , vector(packetBytes)"
vector 237 mobilityDrones.sensors[4].wlan[0].mac.dcf packetSentToPeerWithoutRetry:vector(packetBytes) ETV
attr interpolationmode none
attr source ieee80211NotRetry(packetSentToPeer)
attr title "packets sent: without retry, vector(packetBytes)"
vector 238 mobilityDrones.sensors[4].wlan[0].mac.dcf.channelAccess.inProgressFrames queueingTime:vector ETV
attr interpolationmode none
attr source queueingTime(packetDequeued)
attr title "queueing times, vector"
vector 239 mobilityDrones.sensors[2].wlan[0].mac packetReceivedFromLower:vector(packetBytes) ETV
attr interpolationmode none
attr title "packets received from lower layer, vector(packetBytes)"
vector 240 mobilityDrones.sensors[2].wlan[0].mac.dcf packetReceivedFromPeer:vector(packetBytes) ETV
attr interpolationmode none
attr title "packets received, vector(packetBytes)"
vector 241 mobilityDrones.sensors[2].wlan[0].mac.dcf packetReceivedFromPeerMulticast:vector(packetBytes) ETV
attr interpolationmode none
attr source ieee80211Multicast(packetReceivedFromPeer)
attr title "packets received: multicast, vector(packetBytes)"
vector 242 mobilityDrones.sensors[2].wlan[0].mac.dcf packetReceivedFromPeerBroadcast:vector(packetBytes) ETV
attr interpolationmode none
attr source ieee80211Broadcast(packetReceivedFromPeer)
attr title "packets received: broadcast, vector(packetBytes)"
vector 243 mobilityDrones.sensors[2].wlan[0].mac.dcf packetReceivedFromPeerWithoutRetry:vector(packetBytes) ETV
attr interpolationmode none
attr source ieee80211NotRetry(packetReceivedFromPeer)
attr title "packets received: without retry, vector(packetBytes)"
vector 244 mobilityDrones.sensors[2].wlan[0].mac packetSentToUpper:vector(packetBytes) ETV
attr interpolationmode none
attr title "packets sent to upper layer, vector(packetBytes)"
vector 245 mobilityDrones.sensors[3].app[0] packetSent:vector(packetBytes) ETV
attr interpolationmode none
attr source packetSent
attr title "packets sent, vector(packetBytes)"
vector 246 mobilityDrones.sensors[3].udp packetSent:vector(packetBytes) ETV
attr interpolationmode none
attr source packetSent
attr title "packets sent, vector(packetBytes)"
vector 247 mobilityDrones.sensors[3].ipv4.arp arpRequestSent:vector(packetBytes) ETV
attr source arpRequestSent
attr title "ARP request sent, vector(packetBytes)"
vector 248 mobilityDrones.sensors[3].wlan[0].mac packetReceivedFromUpper:vector(packetBytes) ETV
attr interpolationmode none
attr title "packets received from upper layer, vector(packetBytes)"
vector 249 mobilityDrones.sensors[3].wlan[0].mac.dcf.channelAccess.pendingQueue packetPushed:vector(packetBytes) ETV
attr interpolationmode none
attr title "packet pushed, vector(packetBytes)"
vector 250 mobilityDrones.sensors[3].wlan[0].mac.dcf.channelAccess.pendingQueue queueLength:vector ETV
attr interpolationmode sample-hold
attr source "count(packetPushed) - count(packetPopped) - count(packetRemoved) - count(packetDropped)"
attr title "queue length, vector"
vector 251 mobilityDrones.sensors[3].wlan[0].mac.dcf.channelAccess.contention backoffPeriodGenerated:vector ETV
attr interpolationmode none
attr title "backoff periods, vector"
vector 252 mobilityDrones.sensors[3].wlan[0].mac.dcf.channelAccess.contention backoffActive:vector ETV
attr interpolationmode sample-hold
attr source count(backoffStarted)-count(backoffStopped)
attr title "backoff active, vector"
vector 253 mobilityDrones.sensors[3].wlan[0].mac.dcf.channelAccess.pendingQueue packetPopped:vector(packetBytes) ETV
attr interpolationmode none
attr title "packet popped, vector(packetBytes)"
vector 254 mobilityDrones.sensors[3].wlan[0].mac.dcf.channelAccess.pendingQueue queueingTime:vector ETV
attr interpolationmode none
attr source queueingTime(packetPopped)
attr title "queueing times, vector"
attr unit s
vector 255 mobilityDrones.sensors[3].wlan[0].mac.dcf.channelAccess.inProgressFrames queueLength:vector ETV
attr interpolationmode sample-hold
attr source "count(packetEnqueued) - count(packetDequeued)"
attr title "queue length, vector"
vector 256 mobilityDrones.sensors[3].wlan[0].mac.dcf datarateSelected:vector ETV
attr interpolationmode none
attr title "datarates selected, vector"
vector 257 mobilityDrones.sensors[3].wlan[0].mac packetSentToLower:vector(packetBytes) ETV
attr interpolationmode none
attr title "packets sent to lower layer, vector(packetBytes)"
vector 258 mobilityDrones.sensors[3].wlan[0].mac.dcf frameSequenceActive:vector ETV
attr interpolationmode sample-hold
attr source count(frameSequenceStarted)-count(frameSequenceFinished)
attr title "frame sequence active, vector"
vector 259 mobilityDrones.sensors[3].wlan[0].radio transmissionState:vector ETV
attr interpolationmode sample-hold
attr source transmissionStateChanged
attr title "Radio transmission state, vector"
vector 260 mobilityDrones.sensors[3].wlan[0].mac.dcf packetSentToPeer:vector(packetBytes) ETV
attr interpolationmode none
attr title "packets sent, vector(packetBytes)"
vector 261 mobilityDrones.sensors[3].wlan[0].mac.dcf packetSentToPeerMulticast:vector(packetBytes) ETV
attr interpolationmode none
attr source ieee80211Multicast(packetSentToPeer)
attr title "packets sent: multicast, vector(packetBytes)"
vector 262 mobilityDrones.sensors[3].wlan[0].mac.dcf packetSentToPeerBroadcast:vector(packetBytes) ETV
attr interpolationmode none
attr source ieee80211Broadcast(packetSentToPeer)
attr title "packets sent: broadcast , vector(packetBytes)"
vector 263 mobilityDrones.sensors[3].wlan[0].mac.dcf packetSentToPeerWithoutRetry:vector(packetBytes) ETV
attr interpolationmode none
attr source ieee80211NotRetry(packetSentToPeer)
attr title "packets sent: without retry, vector(packetBytes)"
vector 264 mobilityDrones.sensors[3].wlan[0].mac.dcf.channelAccess.inProgressFrames queueingTime:vector ETV
attr interpolationmode none
attr source queueingTime(packetDequeued)
attr title "queueing times, vector"
vector 265 mobilityDrones.sensors[6].wlan[0].mac packetReceivedFromLower:vector(packetBytes) ETV
attr interpolationmode none
attr title "packets received from lower layer, vector(packetBytes)"
vector 266 mobilityDrones.sensors[6].wlan[0].mac.dcf packetReceivedFromPeer:vector(packetBytes) ETV
attr interpolationmode none
attr title "packets received, vector(packetBytes)"
vector 267 mobilityDrones.sensors[6].wlan[0].mac.dcf packetReceivedFromPeerMulticast:vector(packetBytes) ETV
attr interpolationmode none
attr source ieee80211Multicast(packetReceivedFromPeer)
attr title "packets received: multicast, vector(packetBytes)"
vector 268 mobilityDrones.sensors[6].wlan[0].mac.dcf packetReceivedFromPeerBroadcast:vector(packetBytes) ETV
attr interpolationmode none
attr source ieee80211Broadcast(packetReceivedFromPeer)
attr title "packets received: broadcast, vector(packetBytes)"
vector 269 mobilityDrones.sensors[6].wlan[0].mac.dcf packetReceivedFromPeerWithoutRetry:vector(packetBytes) ETV
attr interpolationmode none
attr source ieee80211NotRetry(packetReceivedFromPeer)
attr title "packets received: without retry, vector(packetBytes)"
vector 270 mobilityDrones.sensors[6].wlan[0].mac packetSentToUpper:vector(packetBytes) ETV
attr interpolationmode none
attr title "packets sent to upper layer, vector(packetBytes)"
vector 271 mobilityDrones.sensors[1].wlan[0].mac packetReceivedFromLower:vector(packetBytes) ETV
attr interpolationmode none
attr title "packets received from lower layer, vector(packetBytes)"
vector 272 mobilityDrones.sensors[1].wlan[0].mac packetDrop:vector(packetBytes) ETV
attr interpolationmode none
attr source packetDropped
attr title "packet drops, vector(packetBytes)"
vector 273 mobilityDrones.sensors[1].wlan[0].mac packetDropIncorrectlyReceived:vector(packetBytes) ETV
attr interpolationmode none
attr source packetDropReasonIsIncorrectlyReceived(packetDropped)
attr title "packet drops: incorrectly received, vector(packetBytes)"
vector 274 mobilityDrones.sensors[0].ipv4.ip packetDropAddressResolutionFailed:vector(packetBytes) ETV
attr interpolationmode none
attr source packetDropReasonIsAddressResolutionFailed(packetDropped)
attr title "packet drop: address resolution failed, vector(packetBytes)"
vector 275 mobilityDrones.sensors[7].ipv4.ip packetDropAddressResolutionFailed:vector(packetBytes) ETV
attr interpolationmode none
attr source packetDropReasonIsAddressResolutionFailed(packetDropped)
attr title "packet drop: address resolution failed, vector(packetBytes)"
vector 276 mobilityDrones.sensors[2].ipv4.ip packetDropAddressResolutionFailed:vector(packetBytes) ETV
attr interpolationmode none
attr source packetDropReasonIsAddressResolutionFailed(packetDropped)
attr title "packet drop: address resolution failed, vector(packetBytes)"
vector 277 mobilityDrones.sensors[6].ipv4.ip packetDropAddressResolutionFailed:vector(packetBytes) ETV
attr interpolationmode none
attr source packetDropReasonIsAddressResolutionFailed(packetDropped)
attr title "packet drop: address resolution failed, vector(packetBytes)"
vector 278 mobilityDrones.sensors[1].wlan[0].mac.dcf packetReceivedFromPeer:vector(packetBytes) ETV
attr interpolationmode none
attr title "packets received, vector(packetBytes)"
vector 279 mobilityDrones.sensors[1].wlan[0].mac.dcf packetReceivedFromPeerMulticast:vector(packetBytes) ETV
attr interpolationmode none
attr source ieee80211Multicast(packetReceivedFromPeer)
attr title "packets received: multicast, vector(packetBytes)"
vector 280 mobilityDrones.sensors[1].wlan[0].mac.dcf packetReceivedFromPeerBroadcast:vector(packetBytes) ETV
attr interpolationmode none
attr source ieee80211Broadcast(packetReceivedFromPeer)
attr title "packets received: broadcast, vector(packetBytes)"
vector 281 mobilityDrones.sensors[1].wlan[0].mac.dcf packetReceivedFromPeerWithoutRetry:vector(packetBytes) ETV
attr interpolationmode none
attr source ieee80211NotRetry(packetReceivedFromPeer)
attr title "packets received: without retry, vector(packetBytes)"
vector 282 mobilityDrones.sensors[1].wlan[0].mac packetSentToUpper:vector(packetBytes) ETV
attr interpolationmode none
attr title "packets sent to upper layer, vector(packetBytes)"
vector 283 mobilityDrones.sensors[5].ipv4.ip packetDropAddressResolutionFailed:vector(packetBytes) ETV
attr interpolationmode none
attr source packetDropReasonIsAddressResolutionFailed(packetDropped)
attr title "packet drop: address resolution failed, vector(packetBytes)"
vector 284 mobilityDrones.sensors[1].ipv4.ip packetDropAddressResolutionFailed:vector(packetBytes) ETV
attr interpolationmode none
attr source packetDropReasonIsAddressResolutionFailed(packetDropped)
attr title "packet drop: address resolution failed, vector(packetBytes)"
vector 285 mobilityDrones.sensors[4].ipv4.ip packetDropAddressResolutionFailed:vector(packetBytes) ETV
attr interpolationmode none
attr source packetDropReasonIsAddressResolutionFailed(packetDropped)
attr title "packet drop: address resolution failed, vector(packetBytes)"
vector 286 mobilityDrones.sensors[6].wlan[0].mac packetDrop:vector(packetBytes) ETV
attr interpolationmode none
attr source packetDropped
attr title "packet drops, vector(packetBytes)"
vector 287 mobilityDrones.sensors[6].wlan[0].mac packetDropIncorrectlyReceived:vector(packetBytes) ETV
attr interpolationmode none
attr source packetDropReasonIsIncorrectlyReceived(packetDropped)
attr title "packet drops: incorrectly received, vector(packetBytes)"
vector 288 mobilityDrones.sensors[3].ipv4.ip packetDropAddressResolutionFailed:vector(packetBytes) ETV
attr interpolationmode none
attr source packetDropReasonIsAddressResolutionFailed(packetDropped)
attr title "packet drop: address resolution failed, vector(packetBytes)"
vector 289 mobilityDrones.quads[1].wlan[0].mac packetDrop:vector(packetBytes) ETV
attr interpolationmode none
attr source packetDropped
attr title "packet drops, vector(packetBytes)"
vector 290 mobilityDrones.quads[1].wlan[0].mac packetDropIncorrectlyReceived:vector(packetBytes) ETV
attr interpolationmode none
attr source packetDropReasonIsIncorrectlyReceived(packetDropped)
attr title "packet drops: incorrectly received, vector(packetBytes)"
vector 291 mobilityDrones.quads[3].wlan[0].mac packetDrop:vector(packetBytes) ETV
attr interpolationmode none
attr source packetDropped
attr title "packet drops, vector(packetBytes)"
vector 292 mobilityDrones.quads[3].wlan[0].mac packetDropIncorrectlyReceived:vector(packetBytes) ETV
attr interpolationmode none
attr source packetDropReasonIsIncorrectlyReceived(packetDropped)
attr title "packet drops: incorrectly received, vector(packetBytes)"
vector 293 mobilityDrones.quads[1].app[0] packetSent:vector(packetBytes) ETV
attr interpolationmode none
attr source packetSent
attr title "packets sent, vector(packetBytes)"
vector 294 mobilityDrones.quads[1].udp packetSent:vector(packetBytes) ETV
attr interpolationmode none
attr source packetSent
attr title "packets sent, vector(packetBytes)"
vector 295 mobilityDrones.quads[1].lo[0].lo rcvdPkFromHl:vector(packetBytes) ETV
attr interpolationmode none
attr source packetReceivedFromUpper
attr title "packets received from higher layer, vector(packetBytes)"
vector 296 mobilityDrones.quads[1].lo[0].lo passedUpPk:vector(packetBytes) ETV
attr interpolationmode none
attr source packetSentToUpper
attr title "packets passed to higher layer, vector(packetBytes)"
vector 297 mobilityDrones.quads[1].wlan[0].mac packetReceivedFromUpper:vector(packetBytes) ETV
attr interpolationmode none
attr title "packets received from upper layer, vector(packetBytes)"
vector 298 mobilityDrones.quads[1].wlan[0].mac.dcf.channelAccess.pendingQueue packetPushed:vector(packetBytes) ETV
attr interpolationmode none
attr title "packet pushed, vector(packetBytes)"
vector 299 mobilityDrones.quads[1].wlan[0].mac.dcf.channelAccess.pendingQueue queueLength:vector ETV
attr interpolationmode sample-hold
attr source "count(packetPushed) - count(packetPopped) - count(packetRemoved) - count(packetDropped)"
attr title "queue length, vector"
vector 300 mobilityDrones.quads[1].wlan[0].mac.dcf.channelAccess.contention backoffPeriodGenerated:vector ETV
attr interpolationmode none
attr title "backoff periods, vector"
vector 301 mobilityDrones.quads[1].wlan[0].mac.dcf.channelAccess.contention backoffActive:vector ETV
attr interpolationmode sample-hold
attr source count(backoffStarted)-count(backoffStopped)
attr title "backoff active, vector"
vector 302 mobilityDrones.quads[1].udp packetReceived:vector(packetBytes) ETV
attr interpolationmode none
attr source packetReceived
attr title "packets received, vector(packetBytes)"
vector 303 mobilityDrones.quads[1].udp passedUpPk:vector(count) ETV
attr interpolationmode none
attr source packetSentToUpper
attr title "packets passed up, vector(count)"
vector 304 mobilityDrones.quads[1].wlan[0].mac.dcf.channelAccess.pendingQueue packetPopped:vector(packetBytes) ETV
attr interpolationmode none
attr title "packet popped, vector(packetBytes)"
vector 305 mobilityDrones.quads[1].wlan[0].mac.dcf.channelAccess.pendingQueue queueingTime:vector ETV
attr interpolationmode none
attr source queueingTime(packetPopped)
attr title "queueing times, vector"
attr unit s
vector 306 mobilityDrones.quads[1].wlan[0].mac.dcf.channelAccess.inProgressFrames queueLength:vector ETV
attr interpolationmode sample-hold
attr source "count(packetEnqueued) - count(packetDequeued)"
attr title "queue length, vector"
vector 307 mobilityDrones.quads[1].wlan[0].mac.dcf datarateSelected:vector ETV
attr interpolationmode none
attr title "datarates selected, vector"
vector 308 mobilityDrones.quads[1].wlan[0].mac packetSentToLower:vector(packetBytes) ETV
attr interpolationmode none
attr title "packets sent to lower layer, vector(packetBytes)"
vector 309 mobilityDrones.quads[1].wlan[0].mac.dcf frameSequenceActive:vector ETV
attr interpolationmode sample-hold
attr source count(frameSequenceStarted)-count(frameSequenceFinished)
attr title "frame sequence active, vector"
vector 310 mobilityDrones.quads[1].wlan[0].radio transmissionState:vector ETV
attr interpolationmode sample-hold
attr source transmissionStateChanged
attr title "Radio transmission state, vector"
vector 311 mobilityDrones.quads[1].wlan[0].mac.dcf packetSentToPeer:vector(packetBytes) ETV
attr interpolationmode none
attr title "packets sent, vector(packetBytes)"
vector 312 mobilityDrones.quads[1].wlan[0].mac.dcf packetSentToPeerMulticast:vector(packetBytes) ETV
attr interpolationmode none
attr source ieee80211Multicast(packetSentToPeer)
attr title "packets sent: multicast, vector(packetBytes)"
vector 313 mobilityDrones.quads[1].wlan[0].mac.dcf packetSentToPeerWithoutRetry:vector(packetBytes) ETV
attr interpolationmode none
attr source ieee80211NotRetry(packetSentToPeer)
attr title "packets sent: without retry, vector(packetBytes)"
vector 314 mobilityDrones.quads[1].wlan[0].mac.dcf.channelAccess.inProgressFrames queueingTime:vector ETV
attr interpolationmode none
attr source queueingTime(packetDequeued)
attr title "queueing times, vector"
0	0	0	0
0	0	0	0
0	0	0	2
0	66	0.00023	3
0	83	0.000284	2
0	198	1	3
0	212	1.000054	2
0	466	2	3
0	480	2.000054	2
0	761	3	3
0	775	3.000054	2
0	1031	4	3
0	1045	4.000054	2
0	1165	5	3
0	1179	5.000054	2
0	1259	6	3
0	1273	6.000054	2
0	1317	7	3
0	1331	7.000054	2
0	1374	8	3
0	1388	8.000054	2
0	1499	9	3
0	1513	9.000054	2
0	1765	10	3
0	1779	10.000054	2
0	2058	11	3
0	2072	11.000054	2
0	2325	12	3
0	2339	12.000054	2
0	2457	13	3
0	2471	13.000054	2
0	2551	14	3
0	2565	14.000054	2
0	2605	15	3
0	2619	15.000054	2
0	2653	16	3
0	2667	16.000054	2
0	2769	17	3
0	2783	17.000054	2
0	3024	18	3
0	3038	18.000054	2
0	3310	19	3
0	3324	19.000054	2
0	3571	20	3
0	3585	20.000054	2
0	3696	21	3
0	3710	21.000054	2
0	3783	22	3
0	3797	22.000054	2
0	3832	23	3
0	3846	23.000054	2
0	3880	24	3
0	3894	24.000054	2
0	3996	25	3
0	4010	25.000054	2
0	4249	26	3
0	4263	26.000054	2
0	4531	27	3
0	4545	27.000054	2
0	4791	28	3
0	4805	28.000054	2
0	4914	29	3
0	4928	29.000054	2
0	5001	30	3
0	5015	30.000054	2
0	5050	31	3
0	5064	31.000054	2
0	5098	32	3
0	5112	32.000054	2
0	5214	33	3
0	5228	33.000054	2
0	5469	34	3
0	5483	34.000054	2
0	5751	35	3
0	5765	35.000054	2
0	6009	36	3
0	6023	36.000054	2
0	6132	37	3
0	6146	37.000054	2
0	6219	38	3
0	6233	38.000054	2
0	6268	39	3
0	6282	39.000054	2
0	6362	40	3
0	6377	40.000054	2
0	6524	41	3
0	6538	41.000054	2
0	6825	42	3
0	6840	42.000054	2
1	0	0	0
2	0	0	0
2	0	0	0
2	0	0	2
2	6310	39.251004747152	3
2	6326	39.251058747152	2
2	6404	40.251004747152	3
2	6418	40.251058747152	2
2	6638	41.251004747152	3
2	6652	41.251058747152	2
2	6973	42.251004747152	3
2	6987	42.251058747152	2
3	0	0	0
4	0	0	0
4	0	0	0
4	0	0	2
5	0	0	0
6	0	0	0
6	0	0	0
6	0	0	2
7	0	0	0
8	0	0	0
8	0	0	0
8	0	0	2
8	121	0.653882567221	3
8	135	0.653932567221	2
8	356	1.653882567221	3
8	370	1.653932567221	2
8	654	2.653882567221	3
8	668	2.653932567221	2
8	1423	8.653882567221	3
8	1437	8.653932567221	2
8	1654	9.653882567221	3
8	1668	9.653932567221	2
8	1951	10.653882567221	3
8	1965	10.653932567221	2
8	2693	16.653882567221	3
8	2707	16.653932567221	2
8	2913	17.653882567221	3
8	2927	17.653932567221	2
8	3201	18.653882567221	3
8	3215	18.653932567221	2
8	3920	24.653882567221	3
8	3934	24.653932567221	2
8	4140	25.653882567221	3
8	4154	25.653932567221	2
8	4424	26.653882567221	3
8	4438	26.653932567221	2
8	5138	32.653882567221	3
8	5152	32.653932567221	2
8	5360	33.653882567221	3
8	5374	33.653932567221	2
8	5644	34.653882567221	3
8	5658	34.653932567221	2
8	6448	40.653882567221	3
8	6462	40.653932567221	2
8	6714	41.653882567221	3
8	6728	41.653932567221	2
8	7047	42.653882567221	3
8	7061	42.653932567221	2
9	0	0	0
10	0	0	0
10	0	0	0
10	0	0	2
10	393	1.808369264275	3
10	407	1.808419264275	2
10	688	2.808369264275	3
10	702	2.808419264275	2
10	987	3.808369264275	3
10	1001	3.808419264275	2
10	1690	9.808369264275	3
10	1704	9.808419264275	2
10	1985	10.808369264275	3
10	1999	10.808419264275	2
10	2281	11.808369264275	3
10	2295	11.808419264275	2
10	2949	17.808369264275	3
10	2963	17.808419264275	2
10	3235	18.808369264275	3
10	3249	18.808419264275	2
10	3527	19.808369264275	3
10	3541	19.808419264275	2
10	4176	25.808369264275	3
10	4190	25.808419264275	2
10	4458	26.808369264275	3
10	4472	26.808419264275	2
10	4747	27.808369264275	3
10	4761	27.808419264275	2
10	5396	33.808369264275	3
10	5410	33.808419264275	2
10	5678	34.808369264275	3
10	5692	34.808419264275	2
10	5967	35.808369264275	3
10	5981	35.808419264275	2
10	6750	41.808369264275	3
10	6764	41.808419264275	2
11	0	0	0
12	0	0	0
12	0	0	0
12	0	0	2
12	242	1.044612508308	3
12	256	1.044662508308	2
12	545	2.044612508308	3
12	559	2.044662508308	2
12	836	3.044612508308	3
12	850	3.044662508308	2
12	1542	9.044612508308	3
12	1556	9.044662508308	2
12	1842	10.044612508308	3
12	1856	10.044662508308	2
12	2133	11.044612508308	3
12	2147	11.044662508308	2
12	2803	17.044612508308	3
12	2817	17.044662508308	2
12	3092	18.044612508308	3
12	3106	18.044662508308	2
12	3377	19.044612508308	3
12	3391	19.044662508308	2
12	4030	25.044612508308	3
12	4044	25.044662508308	2
12	4317	26.044612508308	3
12	4331	26.044662508308	2
12	4597	27.044612508308	3
12	4611	27.044662508308	2
12	5248	33.044612508308	3
12	5262	33.044662508308	2
12	5537	34.044612508308	3
12	5551	34.044662508308	2
12	5817	35.044612508308	3
12	5831	35.044662508308	2
12	6558	41.044612508308	3
12	6572	41.044662508308	2
12	6894	42.044612508308	3
12	6908	42.044662508308	2
13	0	0	0
14	0	0	0
14	0	0	0
14	0	0	2
14	911	3.150169928676	3
14	925	3.150219928676	2
14	1110	4.150169928676	3
14	1124	4.150219928676	2
14	1208	5.150169928676	3
14	1222	5.150219928676	2
14	2205	11.150169928676	3
14	2219	11.150219928676	2
14	2404	12.150169928676	3
14	2418	12.150219928676	2
14	2500	13.150169928676	3
14	2514	13.150219928676	2
14	3451	19.150169928676	3
14	3465	19.150219928676	2
14	3641	20.150169928676	3
14	3655	20.150219928676	2
14	3730	21.150169928676	3
14	3744	21.150219928676	2
14	4671	27.150169928676	3
14	4685	27.150219928676	2
14	4861	28.150169928676	3
14	4875	28.150219928676	2
14	4948	29.150169928676	3
14	4962	29.150219928676	2
14	5891	35.150169928676	3
14	5905	35.150219928676	2
14	6079	36.150169928676	3
14	6093	36.150219928676	2
14	6166	37.150169928676	3
14	6180	37.150219928676	2
15	0	0	0
16	0	0	0
16	0	0	0
16	0	0	2
16	511	2.040892215912	3
16	525	2.040942215912	2
16	802	3.040892215912	3
16	816	3.040942215912	2
16	1072	4.040892215912	3
16	1086	4.040942215912	2
16	1808	10.040892215912	3
16	1822	10.040942215912	2
16	2099	11.040892215912	3
16	2113	11.040942215912	2
16	2366	12.040892215912	3
16	2380	12.040942215912	2
16	3058	18.040892215912	3
16	3072	18.040942215912	2
16	3342	19.040892215912	3
16	3357	19.040942215912	2
16	3603	20.040892215912	3
16	3617	20.040942215912	2
16	4283	26.040892215912	3
16	4297	26.040942215912	2
16	4563	27.040892215912	3
16	4577	27.040942215912	2
16	4823	28.040892215912	3
16	4837	28.040942215912	2
16	5503	34.040892215912	3
16	5517	34.040942215912	2
16	5783	35.040892215912	3
16	5797	35.040942215912	2
16	6041	36.040892215912	3
16	6055	36.040942215912	2
16	6860	42.040892215912	3
16	6874	42.040942215912	2
17	0	0	0
18	0	0	0
18	0	0	0
18	0	0	2
18	324	1.614002074893	3
18	338	1.614052074893	2
18	622	2.614002074893	3
18	636	2.614052074893	2
18	952	3.614002074893	3
18	966	3.614052074893	2
18	1622	9.614002074893	3
18	1636	9.614052074893	2
18	1919	10.614002074893	3
18	1933	10.614052074893	2
18	2246	11.614002074893	3
18	2260	11.614052074893	2
18	2881	17.614002074893	3
18	2895	17.614052074893	2
18	3169	18.614002074893	3
18	3183	18.614052074893	2
18	3492	19.614002074893	3
18	3506	19.614052074893	2
18	4108	25.614002074893	3
18	4122	25.614052074893	2
18	4392	26.614002074893	3
18	4406	26.614052074893	2
18	4712	27.614002074893	3
18	4726	27.614052074893	2
18	5328	33.614002074893	3
18	5342	33.614052074893	2
18	5612	34.614002074893	3
18	5626	34.614052074893	2
18	5932	35.614002074893	3
18	5946	35.614052074893	2
18	6682	41.614002074893	3
18	6696	41.614052074893	2
18	7015	42.614002074893	3
18	7029	42.614052074893	2
19	0	0	0
20	0	0	0
20	0	0	0
20	0	0	2
20	281	1.13593894171	3
20	295	1.13598894171	2
20	582	2.13593894171	3
20	596	2.13598894171	2
20	873	3.13593894171	3
20	887	3.13598894171	2
20	1580	9.13593894171	3
20	1594	9.13598894171	2
20	1879	10.13593894171	3
20	1893	10.13598894171	2
20	2170	11.13593894171	3
20	2184	11.13598894171	2
20	2841	17.13593894171	3
20	2855	17.13598894171	2
20	3129	18.13593894171	3
20	3143	18.13598894171	2
20	3414	19.13593894171	3
20	3428	19.13598894171	2
20	4068	25.13593894171	3
20	4082	25.13598894171	2
20	4354	26.13593894171	3
20	4368	26.13598894171	2
20	4634	27.13593894171	3
20	4648	27.13598894171	2
20	5286	33.13593894171	3
20	5300	33.13598894171	2
20	5574	34.13593894171	3
20	5588	34.13598894171	2
20	5854	35.13593894171	3
20	5868	35.13598894171	2
20	6596	41.13593894171	3
20	6610	41.13598894171	2
20	6931	42.13593894171	3
20	6945	42.13598894171	2
21	0	0	0
22	0	0	0
22	0	0	0
22	0	0	2
22	158	0.872321195042	3
22	172	0.872371195042	2
22	426	1.872321195042	3
22	440	1.872371195042	2
22	721	2.872321195042	3
22	735	2.872371195042	2
22	1459	8.872321195042	3
22	1473	8.872371195042	2
22	1725	9.872321195042	3
22	1739	9.872371195042	2
22	2018	10.872321195042	3
22	2032	10.872371195042	2
22	2729	16.872321195042	3
22	2743	16.872371195042	2
22	2984	17.872321195042	3
22	2998	17.872371195042	2
22	3270	18.872321195042	3
22	3284	18.872371195042	2
22	3956	24.872321195042	3
22	3970	24.872371195042	2
22	4209	25.872321195042	3
22	4223	25.872371195042	2
22	4491	26.872321195042	3
22	4505	26.872371195042	2
22	5174	32.872321195042	3
22	5188	32.872371195042	2
22	5429	33.872321195042	3
22	5443	33.872371195042	2
22	5711	34.872321195042	3
22	5725	34.872371195042	2
22	6484	40.872321195042	3
22	6498	40.872371195042	2
22	6785	41.872321195042	3
22	6799	41.872371195042	2
23	0	0	0
24	0	0	1
24	66	0.00023	0
24	83	0.000284	1
24	198	1	0
24	212	1.000054	1
24	466	2	0
24	480	2.000054	1
24	761	3	0
24	775	3.000054	1
24	1031	4	0
24	1045	4.000054	1
24	1165	5	0
24	1179	5.000054	1
24	1259	6	0
24	1273	6.000054	1
24	1317	7	0
24	1331	7.000054	1
24	1374	8	0
24	1388	8.000054	1
24	1499	9	0
24	1513	9.000054	1
24	1765	10	0
24	1779	10.000054	1
24	2058	11	0
24	2072	11.000054	1
24	2325	12	0
24	2339	12.000054	1
24	2457	13	0
24	2471	13.000054	1
24	2551	14	0
24	2565	14.000054	1
24	2605	15	0
24	2619	15.000054	1
24	2653	16	0
24	2667	16.000054	1
24	2769	17	0
24	2783	17.000054	1
24	3024	18	0
24	3038	18.000054	1
24	3310	19	0
24	3324	19.000054	1
24	3571	20	0
24	3585	20.000054	1
24	3696	21	0
24	3710	21.000054	1
24	3783	22	0
24	3797	22.000054	1
24	3832	23	0
24	3846	23.000054	1
24	3880	24	0
24	3894	24.000054	1
24	3996	25	0
24	4010	25.000054	1
24	4249	26	0
24	4263	26.000054	1
24	4531	27	0
24	4545	27.000054	1
24	4791	28	0
24	4805	28.000054	1
24	4914	29	0
24	4928	29.000054	1
24	5001	30	0
24	5015	30.000054	1
24	5050	31	0
24	5064	31.000054	1
24	5098	32	0
24	5112	32.000054	1
24	5214	33	0
24	5228	33.000054	1
24	5469	34	0
24	5483	34.000054	1
24	5751	35	0
24	5765	35.000054	1
24	6009	36	0
24	6023	36.000054	1
24	6132	37	0
24	6146	37.000054	1
24	6219	38	0
24	6233	38.000054	1
24	6268	39	0
24	6282	39.000054	1
[...]
324	7074	0.3	0
324	7074	0.4	0
324	7074	0.5	0
324	7074	0.6	0
324	7074	0.7	0
324	7074	0.8	0
324	7074	0.9	0
324	7074	1	0
324	7074	1.1	0
324	7074	1.2	0
324	7074	1.3	0
324	7074	1.4	0
324	7074	1.5	0
324	7074	1.6	0
324	7074	1.7	0
324	7074	1.8	0
324	7074	1.9	0
324	7074	2	0
324	7074	2.1	0
324	7074	2.2	0
324	7074	2.3	0
324	7074	2.4	0
324	7074	2.5	0
324	7074	2.6	0
324	7074	2.7	0
324	7074	2.8	0
324	7074	2.9	0
324	7074	3	0
324	7074	3.1	0
324	7074	3.2	0
324	7074	3.3	0
324	7074	3.4	0
324	7074	3.5	0
324	7074	3.6	0
324	7074	3.7	0
324	7074	3.8	0
324	7074	3.9	0
324	7074	4	0
324	7074	4.1	0
324	7074	4.2	0
324	7074	4.3	0
324	7074	4.4	0
324	7074	4.5	0
324	7074	4.6	0
324	7074	4.7	0
324	7074	4.8	0
324	7074	4.9	0
324	7074	5	0
324	7074	5.1	0
324	7074	5.2	0
324	7074	5.3	0
324	7074	5.4	0
324	7074	5.5	0
324	7074	5.6	0
324	7074	5.7	0
324	7074	5.8	0
324	7074	5.9	0
324	7074	6	0
324	7074	6.1	0
324	7074	6.2	0
324	7074	6.3	0
324	7074	6.4	0
324	7074	6.5	0
324	7074	6.6	0
324	7074	6.7	0
324	7074	6.8	0
324	7074	6.9	0
324	7074	7	0
324	7074	7.1	0
324	7074	7.2	0
324	7074	7.3	0
324	7074	7.4	0
324	7074	7.5	0
324	7074	7.6	0
324	7074	7.7	0
324	7074	7.8	0
324	7074	7.9	0
324	7074	8	0
324	7074	8.1	0
324	7074	8.2	0
324	7074	8.3	0
324	7074	8.4	0
324	7074	8.5	0
324	7074	8.6	0
324	7074	8.7	0
324	7074	8.8	0
324	7074	8.9	0
324	7074	9	0
324	7074	9.1	0
324	7074	9.2	0
324	7074	9.3	0
324	7074	9.4	0
324	7074	9.5	0
324	7074	9.6	0
324	7074	9.7	0
324	7074	9.8	0
324	7074	9.9	0
324	7074	10	0
324	7074	10.1	0
324	7074	10.2	0
324	7074	10.3	0
324	7074	10.4	0
324	7074	10.5	0
324	7074	10.6	0
324	7074	10.7	0
324	7074	10.8	0
324	7074	10.9	0
324	7074	11	0
324	7074	11.1	0
324	7074	11.2	0
324	7074	11.3	0
324	7074	11.4	0
324	7074	11.5	0
324	7074	11.6	0
324	7074	11.7	0
324	7074	11.8	0
324	7074	11.9	0
324	7074	12	0
324	7074	12.1	0
324	7074	12.2	0
324	7074	12.3	0
324	7074	12.4	0
324	7074	12.5	0
324	7074	12.6	0
324	7074	12.7	0
324	7074	12.8	0
324	7074	12.9	0
324	7074	13	0
324	7074	13.1	0
324	7074	13.2	0
324	7074	13.3	0
324	7074	13.4	0
324	7074	13.5	0
324	7074	13.6	0
324	7074	13.7	0
324	7074	13.8	0
324	7074	13.9	0
324	7074	14	0
324	7074	14.1	0
324	7074	14.2	0
324	7074	14.3	0
324	7074	14.4	0
324	7074	14.5	0
324	7074	14.6	0
324	7074	14.7	0
324	7074	14.8	0
324	7074	14.9	0
324	7074	15	0
324	7074	15.1	0
324	7074	15.2	0
324	7074	15.3	0
324	7074	15.4	0
324	7074	15.5	0
324	7074	15.6	0
324	7074	15.7	0
324	7074	15.8	0
324	7074	15.9	0
324	7074	16	0
324	7074	16.1	0
324	7074	16.2	0
324	7074	16.3	0
324	7074	16.4	0
324	7074	16.5	0
324	7074	16.6	0
324	7074	16.7	0
324	7074	16.8	0
324	7074	16.9	0
324	7074	17	0
324	7074	17.1	0
324	7074	17.2	0
324	7074	17.3	0
324	7074	17.4	0
324	7074	17.5	0
324	7074	17.6	0
324	7074	17.7	0
324	7074	17.8	0
324	7074	17.9	0
324	7074	18	0
324	7074	18.1	0
324	7074	18.2	0
324	7074	18.3	0
324	7074	18.4	0
324	7074	18.5	0
324	7074	18.6	0
324	7074	18.7	0
324	7074	18.8	0
324	7074	18.9	0
324	7074	19	0
324	7074	19.1	0
324	7074	19.2	0
324	7074	19.3	0
324	7074	19.4	0
324	7074	19.5	0
324	7074	19.6	0
324	7074	19.7	0
324	7074	19.8	0
324	7074	19.9	0
324	7074	20	0
324	7074	20.1	0
324	7074	20.2	0
324	7074	20.3	0
324	7074	20.4	0
324	7074	20.5	0
324	7074	20.6	0
324	7074	20.7	0
324	7074	20.8	0
324	7074	20.9	0
324	7074	21	0
324	7074	21.1	0
324	7074	21.2	0
324	7074	21.3	0
324	7074	21.4	0
324	7074	21.5	0
324	7074	21.6	0
324	7074	21.7	0
324	7074	21.8	0
324	7074	21.9	0
324	7074	22	0
324	7074	22.1	0
324	7074	22.2	0
324	7074	22.3	0
324	7074	22.4	0
324	7074	22.5	0
324	7074	22.6	0
324	7074	22.7	0
324	7074	22.8	0
324	7074	22.9	0
324	7074	23	0
324	7074	23.1	0
324	7074	23.2	0
324	7074	23.3	0
324	7074	23.4	0
324	7074	23.5	0
324	7074	23.6	0
324	7074	23.7	0
324	7074	23.8	0
324	7074	23.9	0
324	7074	24	0
324	7074	24.1	0
324	7074	24.2	0
324	7074	24.3	0
324	7074	24.4	0
324	7074	24.5	0
324	7074	24.6	0
324	7074	24.7	0
324	7074	24.8	0
324	7074	24.9	0
324	7074	25	0
324	7074	25.1	0
324	7074	25.2	0
324	7074	25.3	0
324	7074	25.4	0
324	7074	25.5	0
324	7074	25.6	0
324	7074	25.7	0
324	7074	25.8	0
324	7074	25.9	0
324	7074	26	0
324	7074	26.1	0
324	7074	26.2	0
324	7074	26.3	0
324	7074	26.4	0
324	7074	26.5	0
324	7074	26.6	0
324	7074	26.7	0
324	7074	26.8	0
324	7074	26.9	0
324	7074	27	0
324	7074	27.1	0
324	7074	27.2	0
324	7074	27.3	0
324	7074	27.4	0
324	7074	27.5	0
324	7074	27.6	0
324	7074	27.7	0
324	7074	27.8	0
324	7074	27.9	0
324	7074	28	0
324	7074	28.1	0
324	7074	28.2	0
324	7074	28.3	0
324	7074	28.4	0
324	7074	28.5	0
324	7074	28.6	0
324	7074	28.7	0
324	7074	28.8	0
324	7074	28.9	0
324	7074	29	0
324	7074	29.1	0
324	7074	29.2	0
324	7074	29.3	0
324	7074	29.4	0
324	7074	29.5	0
324	7074	29.6	0
324	7074	29.7	0
324	7074	29.8	0
324	7074	29.9	0
324	7074	30	0
324	7074	30.1	0
324	7074	30.2	0
324	7074	30.3	0
324	7074	30.4	0
324	7074	30.5	0
324	7074	30.6	0
324	7074	30.7	0
324	7074	30.8	0
324	7074	30.9	0
324	7074	31	0
324	7074	31.1	0
324	7074	31.2	0
324	7074	31.3	0
324	7074	31.4	0
324	7074	31.5	0
324	7074	31.6	0
324	7074	31.7	0
324	7074	31.8	0
324	7074	31.9	0
324	7074	32	0
324	7074	32.1	0
324	7074	32.2	0
324	7074	32.3	0
324	7074	32.4	0
324	7074	32.5	0
324	7074	32.6	0
324	7074	32.7	0
324	7074	32.8	0
324	7074	32.9	0
324	7074	33	0
324	7074	33.1	0
324	7074	33.2	0
324	7074	33.3	0
324	7074	33.4	0
324	7074	33.5	0
324	7074	33.6	0
324	7074	33.7	0
324	7074	33.8	0
324	7074	33.9	0
324	7074	34	0
324	7074	34.1	0
324	7074	34.2	0
324	7074	34.3	0
324	7074	34.4	0
324	7074	34.5	0
324	7074	34.6	0
324	7074	34.7	0
324	7074	34.8	0
324	7074	34.9	0
324	7074	35	0
324	7074	35.1	0
324	7074	35.2	0
324	7074	35.3	0
324	7074	35.4	0
324	7074	35.5	0
324	7074	35.6	0
324	7074	35.7	0
324	7074	35.8	0
324	7074	35.9	0
324	7074	36	0
324	7074	36.1	0
324	7074	36.2	0
324	7074	36.3	0
324	7074	36.4	0
324	7074	36.5	0
324	7074	36.6	0
324	7074	36.7	0
324	7074	36.8	0
324	7074	36.9	0
324	7074	37	0
324	7074	37.1	0
324	7074	37.2	0
324	7074	37.3	0
324	7074	37.4	0
324	7074	37.5	0
324	7074	37.6	0
324	7074	37.7	0
324	7074	37.8	0
324	7074	37.9	0
324	7074	38	0
324	7074	38.1	0
324	7074	38.2	0
324	7074	38.3	0
324	7074	38.4	0
324	7074	38.5	0
324	7074	38.6	0
324	7074	38.7	0
324	7074	38.8	0
324	7074	38.9	0
324	7074	39	0
324	7074	39.1	0
324	7074	39.2	0
324	7074	39.3	0
324	7074	39.4	0
324	7074	39.5	0
324	7074	39.6	0
324	7074	39.7	0
324	7074	39.8	0
324	7074	39.9	0
324	7074	40	0
324	7074	40.1	0
324	7074	40.2	0
324	7074	40.3	0
324	7074	40.4	0
324	7074	40.5	0
324	7074	40.6	0
324	7074	40.7	0
324	7074	40.8	0
324	7074	40.9	0
324	7074	41	0
324	7074	41.1	0
324	7074	41.2	0
324	7074	41.3	0
324	7074	41.4	0
324	7074	41.5	0
324	7074	41.6	0
324	7074	41.7	0
324	7074	41.8	0
324	7074	41.9	0
324	7074	42	0
324	7074	42.1	0
324	7074	42.2	0
324	7074	42.3	0
324	7074	42.4	0
324	7074	42.5	0
324	7074	42.6	0
324	7074	42.7	0
324	7074	42.718428388133	0
325	7074	0.1	0
325	7074	0.2	0
325	7074	0.3	0
325	7074	0.4	0
325	7074	0.5	0
325	7074	0.6	0
325	7074	0.7	0
325	7074	0.8	0
325	7074	0.9	0
325	7074	1	0
325	7074	1.1	0
325	7074	1.2	0
325	7074	1.3	0
325	7074	1.4	0
325	7074	1.5	0
325	7074	1.6	0
325	7074	1.7	0
325	7074	1.8	0
325	7074	1.9	0
325	7074	2	0
325	7074	2.1	0
325	7074	2.2	0
325	7074	2.3	0
325	7074	2.4	0
325	7074	2.5	0
325	7074	2.6	0
325	7074	2.7	0
325	7074	2.8	0
325	7074	2.9	0
325	7074	3	0
325	7074	3.1	0
325	7074	3.2	0
325	7074	3.3	0
325	7074	3.4	0
325	7074	3.5	0
325	7074	3.6	0
325	7074	3.7	0
325	7074	3.8	0
325	7074	3.9	0
325	7074	4	0
325	7074	4.1	0
325	7074	4.2	0
325	7074	4.3	0
325	7074	4.4	0
325	7074	4.5	0
325	7074	4.6	0
325	7074	4.7	0
325	7074	4.8	0
325	7074	4.9	0
325	7074	5	0
325	7074	5.1	0
325	7074	5.2	0
325	7074	5.3	0
325	7074	5.4	0
325	7074	5.5	0
325	7074	5.6	0
325	7074	5.7	0
325	7074	5.8	0
325	7074	5.9	0
325	7074	6	0
325	7074	6.1	0
325	7074	6.2	0
325	7074	6.3	0
325	7074	6.4	0
325	7074	6.5	0
325	7074	6.6	0
325	7074	6.7	0
325	7074	6.8	0
325	7074	6.9	0
325	7074	7	0
325	7074	7.1	0
325	7074	7.2	0
325	7074	7.3	0
325	7074	7.4	0
325	7074	7.5	0
325	7074	7.6	0
325	7074	7.7	0
325	7074	7.8	0
325	7074	7.9	0
325	7074	8	0
325	7074	8.1	0
325	7074	8.2	0
325	7074	8.3	0
325	7074	8.4	0
325	7074	8.5	0
325	7074	8.6	0
325	7074	8.7	0
325	7074	8.8	0
325	7074	8.9	0
325	7074	9	0
325	7074	9.1	0
325	7074	9.2	0
325	7074	9.3	0
325	7074	9.4	0
325	7074	9.5	0
325	7074	9.6	0
325	7074	9.7	0
325	7074	9.8	0
325	7074	9.9	0
325	7074	10	0
325	7074	10.1	0
325	7074	10.2	0
325	7074	10.3	0
325	7074	10.4	0
325	7074	10.5	0
325	7074	10.6	0
325	7074	10.7	0
325	7074	10.8	0
325	7074	10.9	0
325	7074	11	0
325	7074	11.1	0
325	7074	11.2	0
325	7074	11.3	0
325	7074	11.4	0
325	7074	11.5	0
325	7074	11.6	0
325	7074	11.7	0
325	7074	11.8	0
325	7074	11.9	0
325	7074	12	0
325	7074	12.1	0
325	7074	12.2	0
325	7074	12.3	0
325	7074	12.4	0
325	7074	12.5	0
325	7074	12.6	0
325	7074	12.7	0
325	7074	12.8	0
325	7074	12.9	0
325	7074	13	0
325	7074	13.1	0
325	7074	13.2	0
325	7074	13.3	0
325	7074	13.4	0
325	7074	13.5	0
325	7074	13.6	0
325	7074	13.7	0
325	7074	13.8	0
325	7074	13.9	0
325	7074	14	0
325	7074	14.1	0
325	7074	14.2	0
325	7074	14.3	0
325	7074	14.4	0
325	7074	14.5	0
325	7074	14.6	0
325	7074	14.7	0
325	7074	14.8	0
325	7074	14.9	0
325	7074	15	0
325	7074	15.1	0
325	7074	15.2	0
325	7074	15.3	0
325	7074	15.4	0
325	7074	15.5	0
325	7074	15.6	0
325	7074	15.7	0
325	7074	15.8	0
325	7074	15.9	0
325	7074	16	0
325	7074	16.1	0
325	7074	16.2	0
325	7074	16.3	0
325	7074	16.4	0
325	7074	16.5	0
325	7074	16.6	0
325	7074	16.7	0
325	7074	16.8	0
325	7074	16.9	0
325	7074	17	0
325	7074	17.1	0
325	7074	17.2	0
325	7074	17.3	0
325	7074	17.4	0
325	7074	17.5	0
325	7074	17.6	0
325	7074	17.7	0
325	7074	17.8	0
325	7074	17.9	0
325	7074	18	0
325	7074	18.1	0
325	7074	18.2	0
325	7074	18.3	0
325	7074	18.4	0
325	7074	18.5	0
325	7074	18.6	0
325	7074	18.7	0
325	7074	18.8	0
325	7074	18.9	0
325	7074	19	0
325	7074	19.1	0
325	7074	19.2	0
325	7074	19.3	0
325	7074	19.4	0
325	7074	19.5	0
325	7074	19.6	0
325	7074	19.7	0
325	7074	19.8	0
325	7074	19.9	0
325	7074	20	0
325	7074	20.1	0
325	7074	20.2	0
325	7074	20.3	0
325	7074	20.4	0
325	7074	20.5	0
325	7074	20.6	0
325	7074	20.7	0
325	7074	20.8	0
325	7074	20.9	0
325	7074	21	0
325	7074	21.1	0
325	7074	21.2	0
325	7074	21.3	0
325	7074	21.4	0
325	7074	21.5	0
325	7074	21.6	0
325	7074	21.7	0
325	7074	21.8	0
325	7074	21.9	0
325	7074	22	0
325	7074	22.1	0
325	7074	22.2	0
325	7074	22.3	0
325	7074	22.4	0
325	7074	22.5	0
325	7074	22.6	0
325	7074	22.7	0
325	7074	22.8	0
325	7074	22.9	0
325	7074	23	0
325	7074	23.1	0
325	7074	23.2	0
325	7074	23.3	0
325	7074	23.4	0
325	7074	23.5	0
325	7074	23.6	0
325	7074	23.7	0
325	7074	23.8	0
325	7074	23.9	0
325	7074	24	0
325	7074	24.1	0
325	7074	24.2	0
325	7074	24.3	0
325	7074	24.4	0
325	7074	24.5	0
325	7074	24.6	0
325	7074	24.7	0
325	7074	24.8	0
325	7074	24.9	0
325	7074	25	0
325	7074	25.1	0
325	7074	25.2	0
325	7074	25.3	0
325	7074	25.4	0
325	7074	25.5	0
325	7074	25.6	0
325	7074	25.7	0
325	7074	25.8	0
325	7074	25.9	0
325	7074	26	0
325	7074	26.1	0
325	7074	26.2	0
325	7074	26.3	0
325	7074	26.4	0
325	7074	26.5	0
325	7074	26.6	0
325	7074	26.7	0
325	7074	26.8	0
325	7074	26.9	0
325	7074	27	0
325	7074	27.1	0
325	7074	27.2	0
325	7074	27.3	0
325	7074	27.4	0
325	7074	27.5	0
325	7074	27.6	0
325	7074	27.7	0
325	7074	27.8	0
325	7074	27.9	0
325	7074	28	0
325	7074	28.1	0
325	7074	28.2	0
325	7074	28.3	0
325	7074	28.4	0
325	7074	28.5	0
325	7074	28.6	0
325	7074	28.7	0
325	7074	28.8	0
325	7074	28.9	0
325	7074	29	0
325	7074	29.1	0
325	7074	29.2	0
325	7074	29.3	0
325	7074	29.4	0
325	7074	29.5	0
325	7074	29.6	0
325	7074	29.7	0
325	7074	29.8	0
325	7074	29.9	0
325	7074	30	0
325	7074	30.1	0
325	7074	30.2	0
325	7074	30.3	0
325	7074	30.4	0
325	7074	30.5	0
325	7074	30.6	0
325	7074	30.7	0
325	7074	30.8	0
325	7074	30.9	0
325	7074	31	0
325	7074	31.1	0
325	7074	31.2	0
325	7074	31.3	0
325	7074	31.4	0
325	7074	31.5	0
325	7074	31.6	0
325	7074	31.7	0
325	7074	31.8	0
325	7074	31.9	0
325	7074	32	0
325	7074	32.1	0
325	7074	32.2	0
325	7074	32.3	0
325	7074	32.4	0
325	7074	32.5	0
325	7074	32.6	0
325	7074	32.7	0
325	7074	32.8	0
325	7074	32.9	0
325	7074	33	0
325	7074	33.1	0
325	7074	33.2	0
325	7074	33.3	0
325	7074	33.4	0
325	7074	33.5	0
325	7074	33.6	0
325	7074	33.7	0
325	7074	33.8	0
325	7074	33.9	0
325	7074	34	0
325	7074	34.1	0
325	7074	34.2	0
325	7074	34.3	0
325	7074	34.4	0
325	7074	34.5	0
325	7074	34.6	0
325	7074	34.7	0
325	7074	34.8	0
325	7074	34.9	0
325	7074	35	0
325	7074	35.1	0
325	7074	35.2	0
325	7074	35.3	0
325	7074	35.4	0
325	7074	35.5	0
325	7074	35.6	0
325	7074	35.7	0
325	7074	35.8	0
325	7074	35.9	0
325	7074	36	0
325	7074	36.1	0
325	7074	36.2	0
325	7074	36.3	0
325	7074	36.4	0
325	7074	36.5	0
325	7074	36.6	0
325	7074	36.7	0
325	7074	36.8	0
325	7074	36.9	0
325	7074	37	0
325	7074	37.1	0
325	7074	37.2	0
325	7074	37.3	0
325	7074	37.4	0
325	7074	37.5	0
325	7074	37.6	0
325	7074	37.7	0
325	7074	37.8	0
325	7074	37.9	0
325	7074	38	0
325	7074	38.1	0
325	7074	38.2	0
325	7074	38.3	0
325	7074	38.4	0
325	7074	38.5	0
325	7074	38.6	0
325	7074	38.7	0
325	7074	38.8	0
325	7074	38.9	0
325	7074	39	0
325	7074	39.1	0
325	7074	39.2	0
325	7074	39.3	0
325	7074	39.4	0
325	7074	39.5	0
325	7074	39.6	0
325	7074	39.7	0
325	7074	39.8	0
325	7074	39.9	0
325	7074	40	0
325	7074	40.1	0
325	7074	40.2	0
325	7074	40.3	0
325	7074	40.4	0
325	7074	40.5	0
325	7074	40.6	0
325	7074	40.7	0
325	7074	40.8	0
325	7074	40.9	0
325	7074	41	0
325	7074	41.1	0
325	7074	41.2	0
325	7074	41.3	0
325	7074	41.4	0
325	7074	41.5	0
325	7074	41.6	0
325	7074	41.7	0
325	7074	41.8	0
325	7074	41.9	0
325	7074	42	0
325	7074	42.1	0
325	7074	42.2	0
325	7074	42.3	0
325	7074	42.4	0
325	7074	42.5	0
325	7074	42.6	0
325	7074	42.7	0
325	7074	42.718428388133	0
326	7074	0.1	0
326	7074	0.2	0
326	7074	0.3	0
326	7074	0.4	0
326	7074	0.5	0
326	7074	0.6	0
326	7074	0.7	0
326	7074	0.8	0
326	7074	0.9	0
326	7074	1	0
326	7074	1.1	0
326	7074	1.2	0
326	7074	1.3	0
326	7074	1.4	0
326	7074	1.5	0
326	7074	1.6	0
326	7074	1.7	0
326	7074	1.8	0
326	7074	1.9	0
326	7074	2	0
326	7074	2.1	0
326	7074	2.2	0
326	7074	2.3	0
326	7074	2.4	0
326	7074	2.5	0
326	7074	2.6	0
326	7074	2.7	0
326	7074	2.8	0
326	7074	2.9	0
326	7074	3	0
326	7074	3.1	0
326	7074	3.2	0
326	7074	3.3	0
326	7074	3.4	0
326	7074	3.5	0
326	7074	3.6	0
326	7074	3.7	0
326	7074	3.8	0
326	7074	3.9	0
326	7074	4	0
326	7074	4.1	0
326	7074	4.2	0
326	7074	4.3	0
326	7074	4.4	0
326	7074	4.5	0
326	7074	4.6	0
326	7074	4.7	0
326	7074	4.8	0
326	7074	4.9	0
326	7074	5	0
326	7074	5.1	0
326	7074	5.2	0
326	7074	5.3	0
326	7074	5.4	0
326	7074	5.5	0
326	7074	5.6	0
326	7074	5.7	0
326	7074	5.8	0
326	7074	5.9	0
326	7074	6	0
326	7074	6.1	0
326	7074	6.2	0
326	7074	6.3	0
326	7074	6.4	0
326	7074	6.5	0
326	7074	6.6	0
326	7074	6.7	0
326	7074	6.8	0
326	7074	6.9	0
326	7074	7	0
326	7074	7.1	0
326	7074	7.2	0
326	7074	7.3	0
326	7074	7.4	0
326	7074	7.5	0
326	7074	7.6	0
326	7074	7.7	0
326	7074	7.8	0
326	7074	7.9	0
326	7074	8	0
326	7074	8.1	0
326	7074	8.2	0
326	7074	8.3	0
326	7074	8.4	0
326	7074	8.5	0
326	7074	8.6	0
326	7074	8.7	0
326	7074	8.8	0
326	7074	8.9	0
326	7074	9	0
326	7074	9.1	0
326	7074	9.2	0
326	7074	9.3	0
326	7074	9.4	0
326	7074	9.5	0
326	7074	9.6	0
326	7074	9.7	0
326	7074	9.8	0
326	7074	9.9	0
326	7074	10	0
326	7074	10.1	0
326	7074	10.2	0
326	7074	10.3	0
326	7074	10.4	0
326	7074	10.5	0
326	7074	10.6	0
326	7074	10.7	0
326	7074	10.8	0
326	7074	10.9	0
326	7074	11	0
326	7074	11.1	0
326	7074	11.2	0
326	7074	11.3	0
326	7074	11.4	0
326	7074	11.5	0
326	7074	11.6	0
326	7074	11.7	0
326	7074	11.8	0
326	7074	11.9	0
326	7074	12	0
326	7074	12.1	0
326	7074	12.2	0
326	7074	12.3	0
326	7074	12.4	0
326	7074	12.5	0
326	7074	12.6	0
326	7074	12.7	0
326	7074	12.8	0
326	7074	12.9	0
326	7074	13	0
326	7074	13.1	0
326	7074	13.2	0
326	7074	13.3	0
326	7074	13.4	0
326	7074	13.5	0
326	7074	13.6	0
326	7074	13.7	0
326	7074	13.8	0
326	7074	13.9	0
326	7074	14	0
326	7074	14.1	0
326	7074	14.2	0
326	7074	14.3	0
326	7074	14.4	0
326	7074	14.5	0
326	7074	14.6	0
326	7074	14.7	0
326	7074	14.8	0
326	7074	14.9	0
326	7074	15	0
326	7074	15.1	0
326	7074	15.2	0
326	7074	15.3	0
326	7074	15.4	0
326	7074	15.5	0
326	7074	15.6	0
326	7074	15.7	0
326	7074	15.8	0
326	7074	15.9	0
326	7074	16	0
326	7074	16.1	0
326	7074	16.2	0
326	7074	16.3	0
326	7074	16.4	0
326	7074	16.5	0
326	7074	16.6	0
326	7074	16.7	0
326	7074	16.8	0
326	7074	16.9	0
326	7074	17	0
326	7074	17.1	0
326	7074	17.2	0
326	7074	17.3	0
326	7074	17.4	0
326	7074	17.5	0
326	7074	17.6	0
326	7074	17.7	0
326	7074	17.8	0
326	7074	17.9	0
326	7074	18	0
326	7074	18.1	0
326	7074	18.2	0
326	7074	18.3	0
326	7074	18.4	0
326	7074	18.5	0
326	7074	18.6	0
326	7074	18.7	0
326	7074	18.8	0
326	7074	18.9	0
326	7074	19	0
326	7074	19.1	0
326	7074	19.2	0
326	7074	19.3	0
326	7074	19.4	0
326	7074	19.5	0
326	7074	19.6	0
326	7074	19.7	0
326	7074	19.8	0
326	7074	19.9	0
326	7074	20	0
326	7074	20.1	0
326	7074	20.2	0
326	7074	20.3	0
326	7074	20.4	0
326	7074	20.5	0
326	7074	20.6	0
326	7074	20.7	0
326	7074	20.8	0
326	7074	20.9	0
326	7074	21	0
326	7074	21.1	0
326	7074	21.2	0
326	7074	21.3	0
326	7074	21.4	0
326	7074	21.5	0
326	7074	21.6	0
326	7074	21.7	0
326	7074	21.8	0
326	7074	21.9	0
326	7074	22	0
326	7074	22.1	0
326	7074	22.2	0
326	7074	22.3	0
326	7074	22.4	0
326	7074	22.5	0
326	7074	22.6	0
326	7074	22.7	0
326	7074	22.8	0
326	7074	22.9	0
326	7074	23	0
326	7074	23.1	0
326	7074	23.2	0
326	7074	23.3	0
326	7074	23.4	0
326	7074	23.5	0
326	7074	23.6	0
326	7074	23.7	0
326	7074	23.8	0
326	7074	23.9	0
326	7074	24	0
326	7074	24.1	0
326	7074	24.2	0
326	7074	24.3	0
326	7074	24.4	0
326	7074	24.5	0
326	7074	24.6	0
326	7074	24.7	0
326	7074	24.8	0
326	7074	24.9	0
326	7074	25	0
326	7074	25.1	0
326	7074	25.2	0
326	7074	25.3	0
326	7074	25.4	0
326	7074	25.5	0
326	7074	25.6	0
326	7074	25.7	0
326	7074	25.8	0
326	7074	25.9	0
326	7074	26	0
326	7074	26.1	0
326	7074	26.2	0
326	7074	26.3	0
326	7074	26.4	0
326	7074	26.5	0
326	7074	26.6	0
326	7074	26.7	0
326	7074	26.8	0
326	7074	26.9	0
326	7074	27	0
326	7074	27.1	0
326	7074	27.2	0
326	7074	27.3	0
326	7074	27.4	0
326	7074	27.5	0
326	7074	27.6	0
326	7074	27.7	0
326	7074	27.8	0
326	7074	27.9	0
326	7074	28	0
326	7074	28.1	0
326	7074	28.2	0
326	7074	28.3	0
326	7074	28.4	0
326	7074	28.5	0
326	7074	28.6	0
326	7074	28.7	0
326	7074	28.8	0
326	7074	28.9	0
326	7074	29	0
326	7074	29.1	0
326	7074	29.2	0
326	7074	29.3	0
326	7074	29.4	0
326	7074	29.5	0
326	7074	29.6	0
326	7074	29.7	0
326	7074	29.8	0
326	7074	29.9	0
326	7074	30	0
326	7074	30.1	0
326	7074	30.2	0
326	7074	30.3	0
326	7074	30.4	0
326	7074	30.5	0
326	7074	30.6	0
326	7074	30.7	0
326	7074	30.8	0
326	7074	30.9	0
326	7074	31	0
326	7074	31.1	0
326	7074	31.2	0
326	7074	31.3	0
326	7074	31.4	0
326	7074	31.5	0
326	7074	31.6	0
326	7074	31.7	0
326	7074	31.8	0
326	7074	31.9	0
326	7074	32	0
326	7074	32.1	0
326	7074	32.2	0
326	7074	32.3	0
326	7074	32.4	0
326	7074	32.5	0
326	7074	32.6	0
326	7074	32.7	0
326	7074	32.8	0
326	7074	32.9	0
326	7074	33	0
326	7074	33.1	0
326	7074	33.2	0
326	7074	33.3	0
326	7074	33.4	0
326	7074	33.5	0
326	7074	33.6	0
326	7074	33.7	0
326	7074	33.8	0
326	7074	33.9	0
326	7074	34	0
326	7074	34.1	0
326	7074	34.2	0
326	7074	34.3	0
326	7074	34.4	0
326	7074	34.5	0
326	7074	34.6	0
326	7074	34.7	0
326	7074	34.8	0
326	7074	34.9	0
326	7074	35	0
326	7074	35.1	0
326	7074	35.2	0
326	7074	35.3	0
326	7074	35.4	0
326	7074	35.5	0
326	7074	35.6	0
326	7074	35.7	0
326	7074	35.8	0
326	7074	35.9	0
326	7074	36	0
326	7074	36.1	0
326	7074	36.2	0
326	7074	36.3	0
326	7074	36.4	0
326	7074	36.5	0
326	7074	36.6	0
326	7074	36.7	0
326	7074	36.8	0
326	7074	36.9	0
326	7074	37	0
326	7074	37.1	0
326	7074	37.2	0
326	7074	37.3	0
326	7074	37.4	0
326	7074	37.5	0
326	7074	37.6	0
326	7074	37.7	0
326	7074	37.8	0
326	7074	37.9	0
326	7074	38	0
326	7074	38.1	0
326	7074	38.2	0
326	7074	38.3	0
326	7074	38.4	0
326	7074	38.5	0
326	7074	38.6	0
326	7074	38.7	0
326	7074	38.8	0
326	7074	38.9	0
326	7074	39	0
326	7074	39.1	0
326	7074	39.2	0
326	7074	39.3	0
326	7074	39.4	0
326	7074	39.5	0
326	7074	39.6	0
326	7074	39.7	0
326	7074	39.8	0
326	7074	39.9	0
326	7074	40	0
326	7074	40.1	0
326	7074	40.2	0
326	7074	40.3	0
326	7074	40.4	0
326	7074	40.5	0
326	7074	40.6	0
326	7074	40.7	0
326	7074	40.8	0
326	7074	40.9	0
326	7074	41	0
326	7074	41.1	0
326	7074	41.2	0
326	7074	41.3	0
326	7074	41.4	0
326	7074	41.5	0
326	7074	41.6	0
326	7074	41.7	0
326	7074	41.8	0
326	7074	41.9	0
326	7074	42	0
326	7074	42.1	0
326	7074	42.2	0
326	7074	42.3	0
326	7074	42.4	0
326	7074	42.5	0
326	7074	42.6	0
326	7074	42.7	0
326	7074	42.718428388133	0

