version 2
run Sim4drone-0-20210708-20:56:54-4280
attr configname Sim4drone
attr datetime 20210708-20:56:54
attr experiment Sim4drone
attr inifile mobilityDrones-omnetpp.ini
attr iterationvars ""
attr iterationvarsf ""
attr measurement ""
attr network mobilityDrones
attr processid 4280
attr repetition 0
attr replication #0
attr resultdir results
attr runnumber 0
attr seedset 0
param *.numUAVs 4
param *.drones[0].app[0].destAddresses "\"drones[1] drones[2] drones[3]\""
param *.drones[1].app[0].destAddresses "\"drones[0] drones[2] drones[3]\""
param *.drones[2].app[0].destAddresses "\"drones[0] drones[1] drones[3]\""
param *.drones[3].app[0].destAddresses "\"drones[0] drones[1] drones[2]\""
param *.drones[*].mobility.waypointFile "\"paths/mission.txt\""
param *.drones[*].app[*].timeoutDuration 5s
param *.drones[0].mobility.startTime 0s
param *.drones[1].mobility.startTime 40s
param *.drones[2].mobility.startTime 80s
param *.drones[3].mobility.startTime 110s
param *.drones[0].app[*].startTime "normal(1s, 1s)"
param *.drones[1].app[*].startTime "normal(40s, 1s)"
param *.drones[2].app[*].startTime "normal(80s, 1s)"
param *.drones[3].app[*].startTime "normal(110s, 1s)"
param *.visualizer.osgVisualizer.typename "\"IntegratedOsgVisualizer\""
param *.visualizer.osgVisualizer.sceneVisualizer.typename "\"SceneOsgEarthVisualizer\""
param *.visualizer.osgVisualizer.sceneVisualizer.mapFile "\"map.earth\""
param *.visualizer.osgVisualizer.sceneVisualizer.sceneImageSize 10000m
param *.visualizer.osgVisualizer.sceneVisualizer.axisLength 500m
param *.visualizer.osgVisualizer.sceneVisualizer.sceneMinX -200m
param *.visualizer.osgVisualizer.sceneVisualizer.sceneMinY -200m
param *.visualizer.osgVisualizer.sceneVisualizer.sceneMinZ 0m
param *.visualizer.osgVisualizer.sceneVisualizer.sceneMaxX 5000m
param *.visualizer.osgVisualizer.sceneVisualizer.sceneMaxY 5000m
param *.visualizer.osgVisualizer.sceneVisualizer.sceneMaxZ 5000m
param *.visualizer.osgVisualizer.networkNodeVisualizer.displayModuleName true
param *.visualizer.*.mobilityVisualizer.displayMobility true
param *.visualizer.*.mobilityVisualizer.displayPositions true
param *.visualizer.*.mobilityVisualizer.displayOrientations true
param *.visualizer.*.mobilityVisualizer.displayVelocities true
param *.visualizer.*.mobilityVisualizer.displayMovementTrails true
param *.visualizer.*.mobilityVisualizer.animationSpeed 10
param *.visualizer.mediumVisualizer.displaySignals true
param **.constraintAreaMinX -5000m
param **.constraintAreaMinY -5000m
param **.constraintAreaMinZ -100m
param **.constraintAreaMaxX 5000m
param **.constraintAreaMaxY 5000m
param **.constraintAreaMaxZ 5000m
param *.drones*.wlan[0].radio.displayCommunicationRange true
param *.coordinateSystem.sceneLongitude -47.926634deg
param *.coordinateSystem.sceneLatitude -15.840075deg
param *.coordinateSystem.sceneHeading 90deg
param *.environment.ground.typename "\"FlatGround\""
param *.drones[*].osgModel "\"3d/drone.ive.80.scale.0,0,90.rot\""
param *.drones[*].mobility.coordinateSystemModule "\"coordinateSystem\""
param *.drones[*].mobility.waypointFile "\"paths/gradys-vai-e-volta-descendo-5s-v1.txt\""
param *.drones[*].mobility.waypointProximity 1m
param **.mobility.initFromDisplayString false
param *.drones[*].mobility.speed 10mps
param *.drones[*].numApps 1
param *.drones[*].app[0].typename "\"UdpMobileNodeCommunicationApp\""
param *.drones[*].app[0].localPort 1000
param *.drones[*].app[0].destPort 1000
param *.drones[*].app[0].sendInterval 1s
param *.drones[*].app[0].startTime 1s
param *.drones[*].app[0].stopTime -1s
param *.drones[*].app[0].messageLength 1454Byte
param *.drones[*].app[0].packetName "\"UAV-DEFAULT-PAYLOAD\""
param *.sensor.mobility.typename "\"StationaryMobility\""
param *.sensor*.mobility.coordinateSystemModule "\"\""

scalar mobilityDrones.radioMedium.propagation "Arrival computation count" 37098
scalar mobilityDrones.radioMedium "transmission count" 12366
scalar mobilityDrones.radioMedium "signal send count" 37098
scalar mobilityDrones.radioMedium "reception computation count" 37098
scalar mobilityDrones.radioMedium "interference computation count" 123641
scalar mobilityDrones.radioMedium "reception decision computation count" 1777
scalar mobilityDrones.radioMedium "listening decision computation count" 84774
scalar mobilityDrones.radioMedium "reception cache hit" 75.871533378428
attr unit %
scalar mobilityDrones.radioMedium "interference cache hit" 66.666666666667
attr unit %
scalar mobilityDrones.radioMedium "noise cache hit" 0
attr unit %
scalar mobilityDrones.radioMedium "snir cache hit" 50
attr unit %
scalar mobilityDrones.radioMedium "reception decision cache hit" 50
attr unit %
scalar mobilityDrones.radioMedium "reception result cache hit" 0
attr unit %
scalar mobilityDrones.drones[0].lo[0].lo rcvdPkFromHl:count 0
attr interpolationmode none
attr source packetReceivedFromUpper
attr title "packets received from higher layer, count"
scalar mobilityDrones.drones[0].lo[0].lo rcvdPkFromHl:sum(packetBytes) 0
attr interpolationmode none
attr source packetReceivedFromUpper
attr title "packets received from higher layer, sum(packetBytes)"
scalar mobilityDrones.drones[0].lo[0].lo passedUpPk:count 0
attr interpolationmode none
attr source packetSentToUpper
attr title "packets passed to higher layer, count"
scalar mobilityDrones.drones[0].lo[0].lo passedUpPk:sum(packetBytes) 0
attr interpolationmode none
attr source packetSentToUpper
attr title "packets passed to higher layer, sum(packetBytes)"
scalar mobilityDrones.drones[0].wlan[0].mac.dcf.channelAccess.pendingQueue packetPopped:count 984
attr interpolationmode none
attr title "packet popped, count"
scalar mobilityDrones.drones[0].wlan[0].mac.dcf.channelAccess.pendingQueue packetPopped:sum(packetBytes) 66324
attr interpolationmode none
attr title "packet popped, sum(packetBytes)"
statistic mobilityDrones.drones[0].wlan[0].mac.dcf.channelAccess.pendingQueue queueingTime:histogram
field count 984
field mean 0.00014494798450203
field stddev 0.0014178347181983
field min 0
field max 0.01958
field sum 0.14262881675
field sqrsum 0.0019967547077501
attr interpolationmode none
attr source queueingTime(packetPopped)
attr title "queueing times, histogram"
attr unit s
bin	-inf	0
bin	0	950
bin	0.00029	15
bin	0.00058	9
bin	0.00087	0
bin	0.00116	0
bin	0.00145	0
bin	0.00174	1
bin	0.00203	0
bin	0.00232	0
bin	0.00261	0
bin	0.0029	0
bin	0.00319	0
bin	0.00348	0
bin	0.00377	0
bin	0.00406	0
bin	0.00435	0
bin	0.00464	0
bin	0.00493	0
bin	0.00522	0
bin	0.00551	0
bin	0.0058	0
bin	0.00609	0
bin	0.00638	0
bin	0.00667	0
bin	0.00696	0
bin	0.00725	1
bin	0.00754	1
bin	0.00783	0
bin	0.00812	0
bin	0.00841	0
bin	0.0087	0
bin	0.00899	0
bin	0.00928	0
bin	0.00957	0
bin	0.00986	0
bin	0.01015	0
bin	0.01044	1
bin	0.01073	0
bin	0.01102	0
bin	0.01131	0
bin	0.0116	1
bin	0.01189	0
bin	0.01218	0
bin	0.01247	0
bin	0.01276	0
bin	0.01305	0
bin	0.01334	0
bin	0.01363	0
bin	0.01392	0
bin	0.01421	0
bin	0.0145	0
bin	0.01479	0
bin	0.01508	0
bin	0.01537	0
bin	0.01566	0
bin	0.01595	0
bin	0.01624	0
bin	0.01653	1
bin	0.01682	0
bin	0.01711	1
bin	0.0174	0
bin	0.01769	0
bin	0.01798	1
bin	0.01827	1
bin	0.01856	0
bin	0.01885	0
bin	0.01914	0
bin	0.01943	1
bin	0.01972	0
scalar mobilityDrones.drones[0].wlan[0].mac.dcf.channelAccess.pendingQueue queueLength:max 3
attr interpolationmode sample-hold
attr source "count(packetPushed) - count(packetPopped) - count(packetRemoved) - count(packetDropped)"
attr title "queue length, max"
scalar mobilityDrones.drones[0].wlan[0].mac.dcf.channelAccess.pendingQueue queueLength:timeavg 0.0002059784097032
attr interpolationmode sample-hold
attr source "count(packetPushed) - count(packetPopped) - count(packetRemoved) - count(packetDropped)"
attr title "queue length, timeavg"
scalar mobilityDrones.drones[0].wlan[0].mac.dcf.channelAccess.pendingQueue packetPushed:count 984
attr interpolationmode none
attr title "packet pushed, count"
scalar mobilityDrones.drones[0].wlan[0].mac.dcf.channelAccess.pendingQueue packetPushed:sum(packetBytes) 66324
attr interpolationmode none
attr title "packet pushed, sum(packetBytes)"
scalar mobilityDrones.drones[0].wlan[0].mac.dcf.channelAccess.pendingQueue packetDropQueueOverflow:count 0
attr interpolationmode none
attr source packetDropReasonIsQueueOverflow(packetDropped)
attr title "packet drops: queue overflow, count"
scalar mobilityDrones.drones[0].wlan[0].mac.dcf.channelAccess.pendingQueue packetDropQueueOverflow:sum(packetBytes) 0
attr interpolationmode none
attr source packetDropReasonIsQueueOverflow(packetDropped)
attr title "packet drops: queue overflow, sum(packetBytes)"
scalar mobilityDrones.drones[0].wlan[0].mac.dcf.channelAccess.pendingQueue packetRemoved:count 0
attr interpolationmode none
attr title "packets removed, count"
scalar mobilityDrones.drones[0].wlan[0].mac.dcf.channelAccess.pendingQueue packetRemoved:sum(packetBytes) 0
attr interpolationmode none
attr title "packets removed, sum(packetBytes)"
statistic mobilityDrones.drones[0].wlan[0].mac.dcf.channelAccess.inProgressFrames queueingTime:histogram
field count 984
field mean 0.015993447553918
field stddev 0.025206032917873
field min 5e-005
field max 0.107217
field sum 15.737552393055
field sqrsum 0.87624096465946
attr interpolationmode none
attr source queueingTime(packetDequeued)
attr title "queueing times, histogram"
bin	-inf	0
bin	0	618
bin	0.002	13
bin	0.004	5
bin	0.006	6
bin	0.008	4
bin	0.01	3
bin	0.012	9
bin	0.014	5
bin	0.016	12
bin	0.018	17
bin	0.02	10
bin	0.022	15
bin	0.024	14
bin	0.026	9
bin	0.028	9
bin	0.03	16
bin	0.032	2
bin	0.034	13
bin	0.036	6
bin	0.038	7
bin	0.04	12
bin	0.042	12
bin	0.044	9
bin	0.046	10
bin	0.048	9
bin	0.05	7
bin	0.052	7
bin	0.054	9
bin	0.056	8
bin	0.058	7
bin	0.06	13
bin	0.062	10
bin	0.064	6
bin	0.066	9
bin	0.068	5
bin	0.07	6
bin	0.072	9
bin	0.074	5
bin	0.076	8
bin	0.078	6
bin	0.08	3
bin	0.082	3
bin	0.084	5
bin	0.086	1
bin	0.088	6
bin	0.09	1
bin	0.092	3
bin	0.094	0
bin	0.096	0
bin	0.098	0
bin	0.1	0
bin	0.102	0
bin	0.104	1
bin	0.106	1
bin	0.108	0
bin	0.11	0
bin	0.112	0
bin	0.114	0
bin	0.116	0
scalar mobilityDrones.drones[0].wlan[0].mac.dcf.channelAccess.inProgressFrames queueLength:max 2
attr interpolationmode sample-hold
attr source "count(packetEnqueued) - count(packetDequeued)"
attr title "queue length, max"
scalar mobilityDrones.drones[0].wlan[0].mac.dcf.channelAccess.inProgressFrames queueLength:timeavg 0.022727503304506
attr interpolationmode sample-hold
attr source "count(packetEnqueued) - count(packetDequeued)"
attr title "queue length, timeavg"
scalar mobilityDrones.drones[0].wlan[0].mac.dcf.channelAccess.contention stateChanged:count 24336
attr interpolationmode none
attr title "contention state changed, count"
scalar mobilityDrones.drones[0].wlan[0].mac.dcf.channelAccess.contention channelAccessGranted:count 2856
attr title "channel access granted, count"
scalar mobilityDrones.drones[0].wlan[0].mac.dcf.channelAccess channelOwnershipChanged:count 5712
attr interpolationmode sample-hold
attr title "channel ownership, count"
scalar mobilityDrones.drones[0].wlan[0].mac.dcf.originatorMacDataService packetAggregated:count 0
attr title "packets aggregated, count"
scalar mobilityDrones.drones[0].wlan[0].mac.dcf.originatorMacDataService packetFragmented:count 0
attr title "packets fragmented, count"
scalar mobilityDrones.drones[0].wlan[0].mac.dcf.recipientMacDataService packetDropDuplicateDetected:count 1
attr interpolationmode none
attr source packetDropReasonIsDuplicateDetected(packetDropped)
attr title "packet drops: duplicate detected, count"
scalar mobilityDrones.drones[0].wlan[0].mac.dcf.recipientMacDataService packetDropDuplicateDetected:sum(packetBytes) 64
attr interpolationmode none
attr source packetDropReasonIsDuplicateDetected(packetDropped)
attr title "packet drops: duplicate detected, sum(packetBytes)"
scalar mobilityDrones.drones[0].wlan[0].mac.dcf.recipientMacDataService packetDeaggregated:count 0
attr title "packets deaggregated, count"
scalar mobilityDrones.drones[0].wlan[0].mac.dcf.recipientMacDataService packetDefragmented:count 77
attr title "packets defragmented, count"
scalar mobilityDrones.drones[0].wlan[0].mac.dcf.recoveryProcedure retryLimitReached:count 306
attr title "retry limit reached, count"
scalar mobilityDrones.drones[0].wlan[0].mac.dcf packetReceivedFromPeer:count 144
attr interpolationmode none
attr title "packets received, count"
scalar mobilityDrones.drones[0].wlan[0].mac.dcf packetReceivedFromPeer:sum(packetBytes) 6779
attr interpolationmode none
attr title "packets received, sum(packetBytes)"
scalar mobilityDrones.drones[0].wlan[0].mac.dcf packetReceivedFromPeerUnicast:count 132
attr interpolationmode none
attr source ieee80211Unicast(packetReceivedFromPeer)
attr title "packets received: unicast, count"
scalar mobilityDrones.drones[0].wlan[0].mac.dcf packetReceivedFromPeerUnicast:sum(packetBytes) 6011
attr interpolationmode none
attr source ieee80211Unicast(packetReceivedFromPeer)
attr title "packets received: unicast, sum(packetBytes)"
scalar mobilityDrones.drones[0].wlan[0].mac.dcf packetReceivedFromPeerMulticast:count 12
attr interpolationmode none
attr source ieee80211Multicast(packetReceivedFromPeer)
attr title "packets received: multicast, count"
scalar mobilityDrones.drones[0].wlan[0].mac.dcf packetReceivedFromPeerMulticast:sum(packetBytes) 768
attr interpolationmode none
attr source ieee80211Multicast(packetReceivedFromPeer)
attr title "packets received: multicast, sum(packetBytes)"
scalar mobilityDrones.drones[0].wlan[0].mac.dcf packetReceivedFromPeerBroadcast:count 12
attr interpolationmode none
attr source ieee80211Broadcast(packetReceivedFromPeer)
attr title "packets received: broadcast, count"
scalar mobilityDrones.drones[0].wlan[0].mac.dcf packetReceivedFromPeerBroadcast:sum(packetBytes) 768
attr interpolationmode none
attr source ieee80211Broadcast(packetReceivedFromPeer)
attr title "packets received: broadcast, sum(packetBytes)"
scalar mobilityDrones.drones[0].wlan[0].mac.dcf packetReceivedFromPeerWithRetry:count 4
attr interpolationmode none
attr source ieee80211Retry(packetReceivedFromPeer)
attr title "packets received: with retry, count"
scalar mobilityDrones.drones[0].wlan[0].mac.dcf packetReceivedFromPeerWithRetry:sum(packetBytes) 274
attr interpolationmode none
attr source ieee80211Retry(packetReceivedFromPeer)
attr title "packets received: with retry, sum(packetBytes)"
scalar mobilityDrones.drones[0].wlan[0].mac.dcf packetReceivedFromPeerWithoutRetry:count 140
attr interpolationmode none
attr source ieee80211NotRetry(packetReceivedFromPeer)
attr title "packets received: without retry, count"
scalar mobilityDrones.drones[0].wlan[0].mac.dcf packetReceivedFromPeerWithoutRetry:sum(packetBytes) 6505
attr interpolationmode none
attr source ieee80211NotRetry(packetReceivedFromPeer)
attr title "packets received: without retry, sum(packetBytes)"
scalar mobilityDrones.drones[0].wlan[0].mac.dcf packetSentToPeer:count 2922
attr interpolationmode none
attr title "packets sent, count"
scalar mobilityDrones.drones[0].wlan[0].mac.dcf packetSentToPeer:sum(packetBytes) 203904
attr interpolationmode none
attr title "packets sent, sum(packetBytes)"
scalar mobilityDrones.drones[0].wlan[0].mac.dcf packetSentToPeerUnicast:count 2310
attr interpolationmode none
attr source ieee80211Unicast(packetSentToPeer)
attr title "packets sent: unicast, count"
scalar mobilityDrones.drones[0].wlan[0].mac.dcf packetSentToPeerUnicast:sum(packetBytes) 164736
attr interpolationmode none
attr source ieee80211Unicast(packetSentToPeer)
attr title "packets sent: unicast, sum(packetBytes)"
scalar mobilityDrones.drones[0].wlan[0].mac.dcf packetSentToPeerMulticast:count 612
attr interpolationmode none
attr source ieee80211Multicast(packetSentToPeer)
attr title "packets sent: multicast, count"
scalar mobilityDrones.drones[0].wlan[0].mac.dcf packetSentToPeerMulticast:sum(packetBytes) 39168
attr interpolationmode none
attr source ieee80211Multicast(packetSentToPeer)
attr title "packets sent: multicast, sum(packetBytes)"
scalar mobilityDrones.drones[0].wlan[0].mac.dcf packetSentToPeerBroadcast:count 612
attr interpolationmode none
attr source ieee80211Broadcast(packetSentToPeer)
attr title "packets sent: broadcast , count"
scalar mobilityDrones.drones[0].wlan[0].mac.dcf packetSentToPeerBroadcast:sum(packetBytes) 39168
attr interpolationmode none
attr source ieee80211Broadcast(packetSentToPeer)
attr title "packets sent: broadcast , sum(packetBytes)"
scalar mobilityDrones.drones[0].wlan[0].mac.dcf packetSentToPeerWithRetry:count 1872
attr interpolationmode none
attr source ieee80211Retry(packetSentToPeer)
attr title "packets sent: with retry, count"
scalar mobilityDrones.drones[0].wlan[0].mac.dcf packetSentToPeerWithRetry:sum(packetBytes) 136656
attr interpolationmode none
attr source ieee80211Retry(packetSentToPeer)
attr title "packets sent: with retry, sum(packetBytes)"
scalar mobilityDrones.drones[0].wlan[0].mac.dcf packetSentToPeerWithoutRetry:count 1050
attr interpolationmode none
attr source ieee80211NotRetry(packetSentToPeer)
attr title "packets sent: without retry, count"
scalar mobilityDrones.drones[0].wlan[0].mac.dcf packetSentToPeerWithoutRetry:sum(packetBytes) 67248
attr interpolationmode none
attr source ieee80211NotRetry(packetSentToPeer)
attr title "packets sent: without retry, sum(packetBytes)"
scalar mobilityDrones.drones[0].wlan[0].mac.dcf packetDrop:count 375
attr interpolationmode none
attr source packetDropped
attr title "packet drops, count"
scalar mobilityDrones.drones[0].wlan[0].mac.dcf packetDrop:sum(packetBytes) 27307
attr interpolationmode none
attr source packetDropped
attr title "packet drops, sum(packetBytes)"
scalar mobilityDrones.drones[0].wlan[0].mac.dcf packetDropNotAddressedToUs:count 68
attr interpolationmode none
attr source packetDropReasonIsNotAddressedToUs(packetDropped)
attr title "packet drops: not addressed to us, count"
scalar mobilityDrones.drones[0].wlan[0].mac.dcf packetDropNotAddressedToUs:sum(packetBytes) 4905
attr interpolationmode none
attr source packetDropReasonIsNotAddressedToUs(packetDropped)
attr title "packet drops: not addressed to us, sum(packetBytes)"
scalar mobilityDrones.drones[0].wlan[0].mac.dcf packetDropQueueOverflow:count 0
attr interpolationmode none
attr source packetDropReasonIsQueueOverflow(packetDropped)
attr title "packet drops: queue overflow, count"
scalar mobilityDrones.drones[0].wlan[0].mac.dcf packetDropQueueOverflow:sum(packetBytes) 0
attr interpolationmode none
attr source packetDropReasonIsQueueOverflow(packetDropped)
attr title "packet drops: queue overflow, sum(packetBytes)"
scalar mobilityDrones.drones[0].wlan[0].mac.dcf packetDropRetryLimitReached:count 306
attr interpolationmode none
attr source packetDropReasonIsRetryLimitReached(packetDropped)
attr title "packet drops: retry limit reached, count"
scalar mobilityDrones.drones[0].wlan[0].mac.dcf packetDropRetryLimitReached:sum(packetBytes) 22338
attr interpolationmode none
attr source packetDropReasonIsRetryLimitReached(packetDropped)
attr title "packet drops: retry limit reached, sum(packetBytes)"
scalar mobilityDrones.drones[0].wlan[0].mac.dcf linkBroken:count 306
attr interpolationmode none
attr title "link breaks, count"
scalar mobilityDrones.drones[0].wlan[0].mac.dcf frameSequenceFinished:count 2856
attr title "finished frame sequences, count"
statistic mobilityDrones.drones[0].wlan[0].mac.dcf frameSequenceDuration:histogram
field count 2856
field mean 9.6117465883403e-005
field stddev 2.4138345714981e-005
field min 5e-005
field max 0.000109
field sum 0.274511482563
field sqrsum 2.804884160001e-005
attr source frameSequenceDuration(frameSequenceFinished)
attr title "frame sequence durations, histogram"
bin	-inf	0
bin	3.5e-005	0
bin	3.6e-005	0
bin	3.7e-005	0
bin	3.8e-005	0
bin	3.9e-005	0
bin	4e-005	0
bin	4.1e-005	0
bin	4.2e-005	0
bin	4.3e-005	0
bin	4.4e-005	0
bin	4.5e-005	0
bin	4.6e-005	0
bin	4.7e-005	0
bin	4.8e-005	0
bin	4.9e-005	612
bin	5e-005	0
bin	5.1e-005	0
bin	5.2e-005	0
bin	5.3e-005	0
bin	5.4e-005	0
bin	5.5e-005	0
bin	5.6e-005	0
bin	5.7e-005	0
bin	5.8e-005	0
bin	5.9e-005	0
bin	6e-005	0
bin	6.1e-005	0
bin	6.2e-005	0
bin	6.3e-005	0
bin	6.4e-005	0
bin	6.5e-005	0
bin	6.6e-005	0
bin	6.7e-005	0
bin	6.8e-005	0
bin	6.9e-005	0
bin	7e-005	0
bin	7.1e-005	0
bin	7.2e-005	0
bin	7.3e-005	0
bin	7.4e-005	0
bin	7.5e-005	0
bin	7.6e-005	0
bin	7.7e-005	0
bin	7.8e-005	0
bin	7.9e-005	0
bin	8e-005	0
bin	8.1e-005	0
bin	8.2e-005	0
bin	8.3e-005	0
bin	8.4e-005	0
bin	8.5e-005	0
bin	8.6e-005	0
bin	8.7e-005	0
bin	8.8e-005	0
bin	8.9e-005	0
bin	9e-005	0
bin	9.1e-005	0
bin	9.2e-005	0
bin	9.3e-005	0
bin	9.4e-005	0
bin	9.5e-005	0
bin	9.6e-005	0
bin	9.7e-005	0
bin	9.8e-005	66
bin	9.9e-005	0
bin	0.0001	0
bin	0.000101	0
bin	0.000102	0
bin	0.000103	0
bin	0.000104	0
bin	0.000105	0
bin	0.000106	0
bin	0.000107	0
bin	0.000108	2178
bin	0.000109	0
bin	0.00011	0
bin	0.000111	0
bin	0.000112	0
bin	0.000113	0
bin	0.000114	0
bin	0.000115	0
bin	0.000116	0
bin	0.000117	0
bin	0.000118	0
bin	0.000119	0
bin	0.00012	0
bin	0.000121	0
bin	0.000122	0
bin	0.000123	0
bin	0.000124	0
statistic mobilityDrones.drones[0].wlan[0].mac.dcf frameSequenceNumPackets:histogram
field count 2856
field mean 1.7857142857143
field stddev 0.41039775796147
field min 1
field max 2
field sum 5100
field sqrsum 9588
attr source frameSequenceNumPackets(frameSequenceFinished)
attr title "frame sequences: number of packets, histogram"
bin	-inf	0
bin	0	0
bin	1	612
bin	2	2244
bin	3	0
scalar mobilityDrones.drones[0].wlan[0].mac packetReceivedFromLower:count 241
attr interpolationmode none
attr title "packets received from lower layer, count"
scalar mobilityDrones.drones[0].wlan[0].mac packetReceivedFromLower:sum(packetBytes) 13488
attr interpolationmode none
attr title "packets received from lower layer, sum(packetBytes)"
scalar mobilityDrones.drones[0].wlan[0].mac packetSentToLower:count 2922
attr interpolationmode none
attr title "packets sent to lower layer, count"
scalar mobilityDrones.drones[0].wlan[0].mac packetSentToLower:sum(packetBytes) 203904
attr interpolationmode none
attr title "packets sent to lower layer, sum(packetBytes)"
scalar mobilityDrones.drones[0].wlan[0].mac packetReceivedFromUpper:count 984
attr interpolationmode none
attr title "packets received from upper layer, count"
scalar mobilityDrones.drones[0].wlan[0].mac packetReceivedFromUpper:sum(packetBytes) 38772
attr interpolationmode none
attr title "packets received from upper layer, sum(packetBytes)"
scalar mobilityDrones.drones[0].wlan[0].mac packetSentToUpper:count 77
attr interpolationmode none
attr title "packets sent to upper layer, count"
scalar mobilityDrones.drones[0].wlan[0].mac packetSentToUpper:sum(packetBytes) 3635
attr interpolationmode none
attr title "packets sent to upper layer, sum(packetBytes)"
scalar mobilityDrones.drones[0].wlan[0].mac packetDrop:count 404
attr interpolationmode none
attr source packetDropped
attr title "packet drops, count"
scalar mobilityDrones.drones[0].wlan[0].mac packetDrop:sum(packetBytes) 29111
attr interpolationmode none
attr source packetDropped
attr title "packet drops, sum(packetBytes)"
scalar mobilityDrones.drones[0].wlan[0].mac packetDropIncorrectlyReceived:count 29
attr interpolationmode none
attr source packetDropReasonIsIncorrectlyReceived(packetDropped)
attr title "packet drops: incorrectly received, count"
scalar mobilityDrones.drones[0].wlan[0].mac packetDropIncorrectlyReceived:sum(packetBytes) 1804
attr interpolationmode none
attr source packetDropReasonIsIncorrectlyReceived(packetDropped)
attr title "packet drops: incorrectly received, sum(packetBytes)"
scalar mobilityDrones.drones[0].wlan[0].mac packetDropNotAddressedToUs:count 68
attr interpolationmode none
attr source packetDropReasonIsNotAddressedToUs(packetDropped)
attr title "packet drops: not addressed to us, count"
scalar mobilityDrones.drones[0].wlan[0].mac packetDropNotAddressedToUs:sum(packetBytes) 4905
attr interpolationmode none
attr source packetDropReasonIsNotAddressedToUs(packetDropped)
attr title "packet drops: not addressed to us, sum(packetBytes)"
scalar mobilityDrones.drones[0].wlan[0].mac packetDropQueueOverflow:count 0
attr interpolationmode none
attr source packetDropReasonIsQueueOverflow(packetDropped)
attr title "packet drops: queue overflow, count"
scalar mobilityDrones.drones[0].wlan[0].mac packetDropQueueOverflow:sum(packetBytes) 0
attr interpolationmode none
attr source packetDropReasonIsQueueOverflow(packetDropped)
attr title "packet drops: queue overflow, sum(packetBytes)"
scalar mobilityDrones.drones[0].wlan[0].mac packetDropRetryLimitReached:count 306
attr interpolationmode none
attr source packetDropReasonIsRetryLimitReached(packetDropped)
attr title "packet drops: retry limit reached, count"
scalar mobilityDrones.drones[0].wlan[0].mac packetDropRetryLimitReached:sum(packetBytes) 22338
attr interpolationmode none
attr source packetDropReasonIsRetryLimitReached(packetDropped)
attr title "packet drops: retry limit reached, sum(packetBytes)"
scalar mobilityDrones.drones[0].wlan[0].mac packetDropDuplicateDetected:count 1
attr interpolationmode none
attr source packetDropReasonIsDuplicateDetected(packetDropped)
attr title "packet drops: duplicate detected, count"
scalar mobilityDrones.drones[0].wlan[0].mac packetDropDuplicateDetected:sum(packetBytes) 64
attr interpolationmode none
attr source packetDropReasonIsDuplicateDetected(packetDropped)
attr title "packet drops: duplicate detected, sum(packetBytes)"
scalar mobilityDrones.drones[0].wlan[0].mac packetDropOther:count 0
attr interpolationmode none
attr source packetDropReasonIsOther(packetDropped)
attr title "packet drops: other, count"
scalar mobilityDrones.drones[0].wlan[0].mac packetDropOther:sum(packetBytes) 0
attr interpolationmode none
attr source packetDropReasonIsOther(packetDropped)
attr title "packet drops: other, sum(packetBytes)"
scalar mobilityDrones.drones[0].wlan[0].mac linkBroken:count 306
attr interpolationmode none
attr title "link breaks, count"
statistic mobilityDrones.drones[0].wlan[0].radio minSnir:histogram
field count 241
field mean 894798984.12009
field stddev 8479340634.0485
field min 14.578467320031
field max 91755054109.427
field sum 215646555172.94
field sqrsum 1.7448772539672e+022
attr source minimumSnir(packetSentToUpper)
attr title "Min SNIR, histogram"
bin	-inf	0
bin	0	238
bin	2000000000	0
bin	4000000000	0
bin	6000000000	0
bin	8000000000	0
bin	10000000000	0
bin	12000000000	0
bin	14000000000	0
bin	16000000000	0
bin	18000000000	0
bin	20000000000	0
bin	22000000000	0
bin	24000000000	0
bin	26000000000	0
bin	28000000000	0
bin	30000000000	0
bin	32000000000	0
bin	34000000000	1
bin	36000000000	0
bin	38000000000	0
bin	40000000000	0
bin	42000000000	0
bin	44000000000	0
bin	46000000000	0
bin	48000000000	0
bin	50000000000	0
bin	52000000000	0
bin	54000000000	0
bin	56000000000	0
bin	58000000000	0
bin	60000000000	0
bin	62000000000	0
bin	64000000000	0
bin	66000000000	0
bin	68000000000	0
bin	70000000000	0
bin	72000000000	0
bin	74000000000	0
bin	76000000000	0
bin	78000000000	0
bin	80000000000	0
bin	82000000000	0
bin	84000000000	0
bin	86000000000	1
bin	88000000000	0
bin	90000000000	1
bin	92000000000	0
bin	94000000000	0
bin	96000000000	0
bin	98000000000	0
bin	100000000000	0
bin	102000000000	0
bin	104000000000	0
bin	106000000000	0
bin	108000000000	0
bin	110000000000	0
bin	112000000000	0
bin	114000000000	0
bin	116000000000	0
statistic mobilityDrones.drones[0].wlan[0].radio packetErrorRate:histogram
field count 241
field mean 0.13642039415021
field stddev 0.23657488940428
field min 0
field max 0.86972093496913
field sum 32.8773149902
field sqrsum 17.917379060759
attr source packetErrorRate(packetSentToUpper)
attr title "Packet error rate, histogram"
bin	-inf	0
bin	0	146
bin	0.02	15
bin	0.04	1
bin	0.06	5
bin	0.08	1
bin	0.1	9
bin	0.12	2
bin	0.14	0
bin	0.16	5
bin	0.18	2
bin	0.2	0
bin	0.22	2
bin	0.24	3
bin	0.26	1
bin	0.28	1
bin	0.3	0
bin	0.32	2
bin	0.34	3
bin	0.36	5
bin	0.38	3
bin	0.4	1
bin	0.42	1
bin	0.44	2
bin	0.46	0
bin	0.48	3
bin	0.5	2
bin	0.52	1
bin	0.54	1
bin	0.56	2
bin	0.58	4
bin	0.6	1
bin	0.62	1
bin	0.64	0
bin	0.66	1
bin	0.68	0
bin	0.7	0
bin	0.72	0
bin	0.74	0
bin	0.76	7
bin	0.78	3
bin	0.8	1
bin	0.82	2
bin	0.84	1
bin	0.86	1
bin	0.88	0
bin	0.9	0
bin	0.92	0
bin	0.94	0
bin	0.96	0
bin	0.98	0
statistic mobilityDrones.drones[0].wlan[0].radio bitErrorRate:histogram
field count 0
field mean nan
field stddev nan
field min nan
field max nan
field sum 0
field sqrsum 0
attr source bitErrorRate(packetSentToUpper)
attr title "Bit error rate, histogram"
bin	-inf	0
bin	0	0
bin	1	0
statistic mobilityDrones.drones[0].wlan[0].radio symbolErrorRate:histogram
field count 0
field mean nan
field stddev nan
field min nan
field max nan
field sum 0
field sqrsum 0
attr source symbolErrorRate(packetSentToUpper)
attr title "Symbol error rate, histogram"
bin	-inf	0
bin	0	0
bin	1	0
scalar mobilityDrones.drones[0].wlan[0].radio transmissionState:count 11688
attr interpolationmode sample-hold
attr source transmissionStateChanged
attr title "Radio transmission state, count"
scalar mobilityDrones.drones[0].wlan[0].radio receptionState:count 6435
attr interpolationmode sample-hold
attr source receptionStateChanged
attr title "Radio reception state, count"
scalar mobilityDrones.drones[0].wlan[0].radio radioMode:count 5847
attr interpolationmode sample-hold
attr source radioModeChanged
attr title "Radio mode, count"
statistic mobilityDrones.drones[0].wlan[0].radio radioChannel:histogram
field count 1
field mean 0
field stddev nan
field min 0
field max 0
field sum 0
field sqrsum 0
attr interpolationmode sample-hold
attr source radioChannelChanged
attr title "Radio channel, histogram"
bin	-inf	0
bin	-0.5	0
bin	-0.48	0
bin	-0.46	0
bin	-0.44	0
bin	-0.42	0
bin	-0.4	0
bin	-0.38	0
bin	-0.36	0
bin	-0.34	0
bin	-0.32	0
bin	-0.3	0
bin	-0.28	0
bin	-0.26	0
bin	-0.24	0
bin	-0.22	0
bin	-0.2	0
bin	-0.18	0
bin	-0.16	0
bin	-0.14	0
bin	-0.12	0
bin	-0.1	0
bin	-0.08	0
bin	-0.06	0
bin	-0.04	0
bin	-0.02	0
bin	0	1
bin	0.02	0
bin	0.04	0
bin	0.06	0
bin	0.08	0
bin	0.1	0
bin	0.12	0
bin	0.14	0
bin	0.16	0
bin	0.18	0
bin	0.2	0
bin	0.22	0
bin	0.24	0
bin	0.26	0
bin	0.28	0
bin	0.3	0
bin	0.32	0
bin	0.34	0
bin	0.36	0
bin	0.38	0
bin	0.4	0
bin	0.42	0
bin	0.44	0
bin	0.46	0
bin	0.48	0
bin	0.5	0
scalar mobilityDrones.drones[0].ipv4.ip packetDropAddressResolutionFailed:count 336
attr interpolationmode none
attr source packetDropReasonIsAddressResolutionFailed(packetDropped)
attr title "packet drop: address resolution failed, count"
scalar mobilityDrones.drones[0].ipv4.ip packetDropAddressResolutionFailed:sum(packetBytes) 12432
attr interpolationmode none
attr source packetDropReasonIsAddressResolutionFailed(packetDropped)
attr title "packet drop: address resolution failed, sum(packetBytes)"
scalar mobilityDrones.drones[0].ipv4.ip packetDropHopLimitReached:count 0
attr interpolationmode none
attr source packetDropReasonIsHopLimitReached(packetDropped)
attr title "packet drop: hop limit reached, count"
scalar mobilityDrones.drones[0].ipv4.ip packetDropHopLimitReached:sum(packetBytes) 0
attr interpolationmode none
attr source packetDropReasonIsHopLimitReached(packetDropped)
attr title "packet drop: hop limit reached, sum(packetBytes)"
scalar mobilityDrones.drones[0].ipv4.ip packetDropForwardingDisabled:count 0
attr interpolationmode none
attr source packetDropReasonIsForwardingDisabled(packetDropped)
attr title "packet drop: forwarding disabled, count"
scalar mobilityDrones.drones[0].ipv4.ip packetDropForwardingDisabled:sum(packetBytes) 0
attr interpolationmode none
attr source packetDropReasonIsForwardingDisabled(packetDropped)
attr title "packet drop: forwarding disabled, sum(packetBytes)"
scalar mobilityDrones.drones[0].ipv4.ip packetDropNoInterfaceFound:count 0
attr interpolationmode none
attr source packetDropReasonIsNoInterfaceFound(packetDropped)
attr title "packet drop: no interface found, count"
scalar mobilityDrones.drones[0].ipv4.ip packetDropNoInterfaceFound:sum(packetBytes) 0
attr interpolationmode none
attr source packetDropReasonIsNoInterfaceFound(packetDropped)
attr title "packet drop: no interface found, sum(packetBytes)"
scalar mobilityDrones.drones[0].ipv4.ip packetDropNoRouteFound:count 0
attr interpolationmode none
attr source packetDropReasonIsNoRouteFound(packetDropped)
attr title "packet drop: no route found, count"
scalar mobilityDrones.drones[0].ipv4.ip packetDropNoRouteFound:sum(packetBytes) 0
attr interpolationmode none
attr source packetDropReasonIsNoRouteFound(packetDropped)
attr title "packet drop: no route found, sum(packetBytes)"
scalar mobilityDrones.drones[0].ipv4.ip packetDropUndefined:count 0
attr interpolationmode none
attr source packetDropReasonIsUndefined(packetDropped)
attr title "packet drop: undefined, count"
scalar mobilityDrones.drones[0].ipv4.ip packetDropUndefined:sum(packetBytes) 0
attr interpolationmode none
attr source packetDropReasonIsUndefined(packetDropped)
attr title "packet drop: undefined, sum(packetBytes)"
scalar mobilityDrones.drones[0].ipv4.arp arpReplySent:count 0
attr source arpReplySent
attr title "ARP replies sent, count"
scalar mobilityDrones.drones[0].ipv4.arp arpReplySent:sum(packetBytes) 0
attr source arpReplySent
attr title "ARP replies sent, sum(packetBytes)"
scalar mobilityDrones.drones[0].ipv4.arp arpRequestSent:count 612
attr source arpRequestSent
attr title "ARP request sent, count"
scalar mobilityDrones.drones[0].ipv4.arp arpRequestSent:sum(packetBytes) 17136
attr source arpRequestSent
attr title "ARP request sent, sum(packetBytes)"
scalar mobilityDrones.drones[0].ipv4.arp arpResolutionFailed:count 201
attr title "ARP failed resolutions, count"
scalar mobilityDrones.drones[0].ipv4.arp arpResolutionCompleted:count 17
attr title "ARP completed resolutions, count"
scalar mobilityDrones.drones[0].ipv4.arp arpResolutionInitiated:count 207
attr title "ARP initiated resolutions, count"
scalar mobilityDrones.drones[0].udp packetReceived:count 43
attr interpolationmode none
attr source packetReceived
attr title "packets received, count"
scalar mobilityDrones.drones[0].udp packetReceived:sum(packetBytes) 731
attr interpolationmode none
attr source packetReceived
attr title "packets received, sum(packetBytes)"
scalar mobilityDrones.drones[0].udp packetSent:count 709
attr interpolationmode none
attr source packetSent
attr title "packets sent, count"
scalar mobilityDrones.drones[0].udp packetSent:sum(packetBytes) 12053
attr interpolationmode none
attr source packetSent
attr title "packets sent, sum(packetBytes)"
scalar mobilityDrones.drones[0].udp passedUpPk:count 43
attr interpolationmode none
attr source packetSentToUpper
attr title "packets passed up, count"
scalar mobilityDrones.drones[0].udp droppedPkWrongPort:count 0
attr interpolationmode none
attr source packetDropReasonIsNoPortFound(packetDropped)
attr title "packets dropped (wrong port), count"
scalar mobilityDrones.drones[0].udp droppedPkBadChecksum:count 0
attr interpolationmode none
attr source packetDropReasonIsIncorrectlyReceived(packetDropped)
attr title "packets dropped (checksum error), count"
scalar mobilityDrones.drones[0].app[0] "packets sent" 709
scalar mobilityDrones.drones[0].app[0] "packets received" 0
scalar mobilityDrones.drones[0].app[0] packetReceived:count 43
attr interpolationmode none
attr source packetReceived
attr title "packets received, count"
scalar mobilityDrones.drones[0].app[0] packetReceived:sum(packetBytes) 387
attr interpolationmode none
attr source packetReceived
attr title "packets received, sum(packetBytes)"
statistic mobilityDrones.drones[0].app[0] rcvdPkLifetime:stats
field count 43
field mean 0.0028480593676279
field stddev 0.0060095618650933
field min 5.4201507e-005
field max 0.026994410914
field sum 0.122466552808
field sqrsum 0.001865615032982
attr interpolationmode none
attr source dataAge(packetReceived)
attr title "received packet lifetime, stats"
attr unit s
scalar mobilityDrones.drones[0].app[0] packetSent:count 709
attr interpolationmode none
attr source packetSent
attr title "packets sent, count"
scalar mobilityDrones.drones[0].app[0] packetSent:sum(packetBytes) 6381
attr interpolationmode none
attr source packetSent
attr title "packets sent, sum(packetBytes)"
scalar mobilityDrones.drones[1].lo[0].lo rcvdPkFromHl:count 0
attr interpolationmode none
attr source packetReceivedFromUpper
attr title "packets received from higher layer, count"
scalar mobilityDrones.drones[1].lo[0].lo rcvdPkFromHl:sum(packetBytes) 0
attr interpolationmode none
attr source packetReceivedFromUpper
attr title "packets received from higher layer, sum(packetBytes)"
scalar mobilityDrones.drones[1].lo[0].lo passedUpPk:count 0
attr interpolationmode none
attr source packetSentToUpper
attr title "packets passed to higher layer, count"
scalar mobilityDrones.drones[1].lo[0].lo passedUpPk:sum(packetBytes) 0
attr interpolationmode none
attr source packetSentToUpper
attr title "packets passed to higher layer, sum(packetBytes)"
scalar mobilityDrones.drones[1].wlan[0].mac.dcf.channelAccess.pendingQueue packetPopped:count 819
attr interpolationmode none
attr title "packet popped, count"
scalar mobilityDrones.drones[1].wlan[0].mac.dcf.channelAccess.pendingQueue packetPopped:sum(packetBytes) 57734
attr interpolationmode none
attr title "packet popped, sum(packetBytes)"
statistic mobilityDrones.drones[1].wlan[0].mac.dcf.channelAccess.pendingQueue queueingTime:histogram
field count 819
field mean 0.00026286887131258
field stddev 0.0018378506577655
field min 0
field max 0.020074
field sum 0.215289605605
field sqrsum 0.0028195474785546
attr interpolationmode none
attr source queueingTime(packetPopped)
attr title "queueing times, histogram"
attr unit s
bin	-inf	0
bin	0	788
bin	0.0004	11
bin	0.0008	0
bin	0.0012	3
bin	0.0016	0
bin	0.002	0
bin	0.0024	0
bin	0.0028	0
bin	0.0032	0
bin	0.0036	0
bin	0.004	0
bin	0.0044	0
bin	0.0048	1
bin	0.0052	1
bin	0.0056	0
bin	0.006	1
bin	0.0064	0
bin	0.0068	2
bin	0.0072	0
bin	0.0076	1
bin	0.008	0
bin	0.0084	0
bin	0.0088	0
bin	0.0092	0
bin	0.0096	1
bin	0.01	1
bin	0.0104	0
bin	0.0108	1
bin	0.0112	0
bin	0.0116	0
bin	0.012	0
bin	0.0124	0
bin	0.0128	0
bin	0.0132	0
bin	0.0136	0
bin	0.014	1
bin	0.0144	2
bin	0.0148	1
bin	0.0152	0
bin	0.0156	0
bin	0.016	0
bin	0.0164	0
bin	0.0168	0
bin	0.0172	0
bin	0.0176	1
bin	0.018	1
bin	0.0184	1
bin	0.0188	0
bin	0.0192	0
bin	0.0196	0
bin	0.02	1
bin	0.0204	0
scalar mobilityDrones.drones[1].wlan[0].mac.dcf.channelAccess.pendingQueue queueLength:max 2
attr interpolationmode sample-hold
attr source "count(packetPushed) - count(packetPopped) - count(packetRemoved) - count(packetDropped)"
attr title "queue length, max"
scalar mobilityDrones.drones[1].wlan[0].mac.dcf.channelAccess.pendingQueue queueLength:timeavg 0.00031226490065869
attr interpolationmode sample-hold
attr source "count(packetPushed) - count(packetPopped) - count(packetRemoved) - count(packetDropped)"
attr title "queue length, timeavg"
scalar mobilityDrones.drones[1].wlan[0].mac.dcf.channelAccess.pendingQueue packetPushed:count 819
attr interpolationmode none
attr title "packet pushed, count"
scalar mobilityDrones.drones[1].wlan[0].mac.dcf.channelAccess.pendingQueue packetPushed:sum(packetBytes) 57734
attr interpolationmode none
attr title "packet pushed, sum(packetBytes)"
scalar mobilityDrones.drones[1].wlan[0].mac.dcf.channelAccess.pendingQueue packetDropQueueOverflow:count 0
attr interpolationmode none
attr source packetDropReasonIsQueueOverflow(packetDropped)
attr title "packet drops: queue overflow, count"
scalar mobilityDrones.drones[1].wlan[0].mac.dcf.channelAccess.pendingQueue packetDropQueueOverflow:sum(packetBytes) 0
attr interpolationmode none
attr source packetDropReasonIsQueueOverflow(packetDropped)
attr title "packet drops: queue overflow, sum(packetBytes)"
scalar mobilityDrones.drones[1].wlan[0].mac.dcf.channelAccess.pendingQueue packetRemoved:count 0
attr interpolationmode none
attr title "packets removed, count"
scalar mobilityDrones.drones[1].wlan[0].mac.dcf.channelAccess.pendingQueue packetRemoved:sum(packetBytes) 0
attr interpolationmode none
attr title "packets removed, sum(packetBytes)"
statistic mobilityDrones.drones[1].wlan[0].mac.dcf.channelAccess.inProgressFrames queueingTime:histogram
field count 819
field mean 0.030030511650141
field stddev 0.029767797604588
field min 5e-005
field max 0.101097
field sum 24.594989041465
field sqrsum 1.4634477162631
attr interpolationmode none
attr source queueingTime(packetDequeued)
attr title "queueing times, histogram"
bin	-inf	0
bin	0	339
bin	0.002	1
bin	0.004	1
bin	0.006	1
bin	0.008	3
bin	0.01	0
bin	0.012	2
bin	0.014	7
bin	0.016	5
bin	0.018	11
bin	0.02	9
bin	0.022	11
bin	0.024	13
bin	0.026	13
bin	0.028	16
bin	0.03	17
bin	0.032	11
bin	0.034	14
bin	0.036	14
bin	0.038	16
bin	0.04	10
bin	0.042	15
bin	0.044	11
bin	0.046	15
bin	0.048	11
bin	0.05	7
bin	0.052	18
bin	0.054	12
bin	0.056	16
bin	0.058	17
bin	0.06	17
bin	0.062	18
bin	0.064	17
bin	0.066	22
bin	0.068	13
bin	0.07	12
bin	0.072	8
bin	0.074	14
bin	0.076	12
bin	0.078	11
bin	0.08	13
bin	0.082	5
bin	0.084	2
bin	0.086	3
bin	0.088	5
bin	0.09	3
bin	0.092	4
bin	0.094	1
bin	0.096	0
bin	0.098	1
bin	0.1	2
bin	0.102	0
bin	0.104	0
bin	0.106	0
bin	0.108	0
bin	0.11	0
bin	0.112	0
bin	0.114	0
bin	0.116	0
scalar mobilityDrones.drones[1].wlan[0].mac.dcf.channelAccess.inProgressFrames queueLength:max 2
attr interpolationmode sample-hold
attr source "count(packetEnqueued) - count(packetDequeued)"
attr title "queue length, max"
scalar mobilityDrones.drones[1].wlan[0].mac.dcf.channelAccess.inProgressFrames queueLength:timeavg 0.035673591667808
attr interpolationmode sample-hold
attr source "count(packetEnqueued) - count(packetDequeued)"
attr title "queue length, timeavg"
scalar mobilityDrones.drones[1].wlan[0].mac.dcf.channelAccess.contention stateChanged:count 31998
attr interpolationmode none
attr title "contention state changed, count"
scalar mobilityDrones.drones[1].wlan[0].mac.dcf.channelAccess.contention channelAccessGranted:count 3666
attr title "channel access granted, count"
scalar mobilityDrones.drones[1].wlan[0].mac.dcf.channelAccess channelOwnershipChanged:count 7332
attr interpolationmode sample-hold
attr title "channel ownership, count"
scalar mobilityDrones.drones[1].wlan[0].mac.dcf.originatorMacDataService packetAggregated:count 0
attr title "packets aggregated, count"
scalar mobilityDrones.drones[1].wlan[0].mac.dcf.originatorMacDataService packetFragmented:count 0
attr title "packets fragmented, count"
scalar mobilityDrones.drones[1].wlan[0].mac.dcf.recipientMacDataService packetDropDuplicateDetected:count 6
attr interpolationmode none
attr source packetDropReasonIsDuplicateDetected(packetDropped)
attr title "packet drops: duplicate detected, count"
scalar mobilityDrones.drones[1].wlan[0].mac.dcf.recipientMacDataService packetDropDuplicateDetected:sum(packetBytes) 438
attr interpolationmode none
attr source packetDropReasonIsDuplicateDetected(packetDropped)
attr title "packet drops: duplicate detected, sum(packetBytes)"
scalar mobilityDrones.drones[1].wlan[0].mac.dcf.recipientMacDataService packetDeaggregated:count 0
attr title "packets deaggregated, count"
scalar mobilityDrones.drones[1].wlan[0].mac.dcf.recipientMacDataService packetDefragmented:count 175
attr title "packets defragmented, count"
scalar mobilityDrones.drones[1].wlan[0].mac.dcf.recoveryProcedure retryLimitReached:count 471
attr title "retry limit reached, count"
scalar mobilityDrones.drones[1].wlan[0].mac.dcf packetReceivedFromPeer:count 287
attr interpolationmode none
attr title "packets received, count"
scalar mobilityDrones.drones[1].wlan[0].mac.dcf packetReceivedFromPeer:sum(packetBytes) 14243
attr interpolationmode none
attr title "packets received, sum(packetBytes)"
scalar mobilityDrones.drones[1].wlan[0].mac.dcf packetReceivedFromPeerUnicast:count 230
attr interpolationmode none
attr source ieee80211Unicast(packetReceivedFromPeer)
attr title "packets received: unicast, count"
scalar mobilityDrones.drones[1].wlan[0].mac.dcf packetReceivedFromPeerUnicast:sum(packetBytes) 10595
attr interpolationmode none
attr source ieee80211Unicast(packetReceivedFromPeer)
attr title "packets received: unicast, sum(packetBytes)"
scalar mobilityDrones.drones[1].wlan[0].mac.dcf packetReceivedFromPeerMulticast:count 57
attr interpolationmode none
attr source ieee80211Multicast(packetReceivedFromPeer)
attr title "packets received: multicast, count"
scalar mobilityDrones.drones[1].wlan[0].mac.dcf packetReceivedFromPeerMulticast:sum(packetBytes) 3648
attr interpolationmode none
attr source ieee80211Multicast(packetReceivedFromPeer)
attr title "packets received: multicast, sum(packetBytes)"
scalar mobilityDrones.drones[1].wlan[0].mac.dcf packetReceivedFromPeerBroadcast:count 57
attr interpolationmode none
attr source ieee80211Broadcast(packetReceivedFromPeer)
attr title "packets received: broadcast, count"
scalar mobilityDrones.drones[1].wlan[0].mac.dcf packetReceivedFromPeerBroadcast:sum(packetBytes) 3648
attr interpolationmode none
attr source ieee80211Broadcast(packetReceivedFromPeer)
attr title "packets received: broadcast, sum(packetBytes)"
scalar mobilityDrones.drones[1].wlan[0].mac.dcf packetReceivedFromPeerWithRetry:count 23
attr interpolationmode none
attr source ieee80211Retry(packetReceivedFromPeer)
attr title "packets received: with retry, count"
scalar mobilityDrones.drones[1].wlan[0].mac.dcf packetReceivedFromPeerWithRetry:sum(packetBytes) 1679
attr interpolationmode none
attr source ieee80211Retry(packetReceivedFromPeer)
attr title "packets received: with retry, sum(packetBytes)"
scalar mobilityDrones.drones[1].wlan[0].mac.dcf packetReceivedFromPeerWithoutRetry:count 264
attr interpolationmode none
attr source ieee80211NotRetry(packetReceivedFromPeer)
attr title "packets received: without retry, count"
scalar mobilityDrones.drones[1].wlan[0].mac.dcf packetReceivedFromPeerWithoutRetry:sum(packetBytes) 12564
attr interpolationmode none
attr source ieee80211NotRetry(packetReceivedFromPeer)
attr title "packets received: without retry, sum(packetBytes)"
scalar mobilityDrones.drones[1].wlan[0].mac.dcf packetSentToPeer:count 3790
attr interpolationmode none
attr title "packets sent, count"
scalar mobilityDrones.drones[1].wlan[0].mac.dcf packetSentToPeer:sum(packetBytes) 267283
attr interpolationmode none
attr title "packets sent, sum(packetBytes)"
scalar mobilityDrones.drones[1].wlan[0].mac.dcf packetSentToPeerUnicast:count 3548
attr interpolationmode none
attr source ieee80211Unicast(packetSentToPeer)
attr title "packets sent: unicast, count"
scalar mobilityDrones.drones[1].wlan[0].mac.dcf packetSentToPeerUnicast:sum(packetBytes) 251795
attr interpolationmode none
attr source ieee80211Unicast(packetSentToPeer)
attr title "packets sent: unicast, sum(packetBytes)"
scalar mobilityDrones.drones[1].wlan[0].mac.dcf packetSentToPeerMulticast:count 242
attr interpolationmode none
attr source ieee80211Multicast(packetSentToPeer)
attr title "packets sent: multicast, count"
scalar mobilityDrones.drones[1].wlan[0].mac.dcf packetSentToPeerMulticast:sum(packetBytes) 15488
attr interpolationmode none
attr source ieee80211Multicast(packetSentToPeer)
attr title "packets sent: multicast, sum(packetBytes)"
scalar mobilityDrones.drones[1].wlan[0].mac.dcf packetSentToPeerBroadcast:count 242
attr interpolationmode none
attr source ieee80211Broadcast(packetSentToPeer)
attr title "packets sent: broadcast , count"
scalar mobilityDrones.drones[1].wlan[0].mac.dcf packetSentToPeerBroadcast:sum(packetBytes) 15488
attr interpolationmode none
attr source ieee80211Broadcast(packetSentToPeer)
attr title "packets sent: broadcast , sum(packetBytes)"
scalar mobilityDrones.drones[1].wlan[0].mac.dcf packetSentToPeerWithRetry:count 2847
attr interpolationmode none
attr source ieee80211Retry(packetSentToPeer)
attr title "packets sent: with retry, count"
scalar mobilityDrones.drones[1].wlan[0].mac.dcf packetSentToPeerWithRetry:sum(packetBytes) 207813
attr interpolationmode none
attr source ieee80211Retry(packetSentToPeer)
attr title "packets sent: with retry, sum(packetBytes)"
scalar mobilityDrones.drones[1].wlan[0].mac.dcf packetSentToPeerWithoutRetry:count 943
attr interpolationmode none
attr source ieee80211NotRetry(packetSentToPeer)
attr title "packets sent: without retry, count"
scalar mobilityDrones.drones[1].wlan[0].mac.dcf packetSentToPeerWithoutRetry:sum(packetBytes) 59470
attr interpolationmode none
attr source ieee80211NotRetry(packetSentToPeer)
attr title "packets sent: without retry, sum(packetBytes)"
scalar mobilityDrones.drones[1].wlan[0].mac.dcf packetDrop:count 592
attr interpolationmode none
attr source packetDropped
attr title "packet drops, count"
scalar mobilityDrones.drones[1].wlan[0].mac.dcf packetDrop:sum(packetBytes) 42189
attr interpolationmode none
attr source packetDropped
attr title "packet drops, sum(packetBytes)"
scalar mobilityDrones.drones[1].wlan[0].mac.dcf packetDropNotAddressedToUs:count 115
attr interpolationmode none
attr source packetDropReasonIsNotAddressedToUs(packetDropped)
attr title "packet drops: not addressed to us, count"
scalar mobilityDrones.drones[1].wlan[0].mac.dcf packetDropNotAddressedToUs:sum(packetBytes) 7368
attr interpolationmode none
attr source packetDropReasonIsNotAddressedToUs(packetDropped)
attr title "packet drops: not addressed to us, sum(packetBytes)"
scalar mobilityDrones.drones[1].wlan[0].mac.dcf packetDropQueueOverflow:count 0
attr interpolationmode none
attr source packetDropReasonIsQueueOverflow(packetDropped)
attr title "packet drops: queue overflow, count"
scalar mobilityDrones.drones[1].wlan[0].mac.dcf packetDropQueueOverflow:sum(packetBytes) 0
attr interpolationmode none
attr source packetDropReasonIsQueueOverflow(packetDropped)
attr title "packet drops: queue overflow, sum(packetBytes)"
scalar mobilityDrones.drones[1].wlan[0].mac.dcf packetDropRetryLimitReached:count 471
attr interpolationmode none
attr source packetDropReasonIsRetryLimitReached(packetDropped)
attr title "packet drops: retry limit reached, count"
scalar mobilityDrones.drones[1].wlan[0].mac.dcf packetDropRetryLimitReached:sum(packetBytes) 34383
attr interpolationmode none
attr source packetDropReasonIsRetryLimitReached(packetDropped)
attr title "packet drops: retry limit reached, sum(packetBytes)"
scalar mobilityDrones.drones[1].wlan[0].mac.dcf linkBroken:count 471
attr interpolationmode none
attr title "link breaks, count"
scalar mobilityDrones.drones[1].wlan[0].mac.dcf frameSequenceFinished:count 3666
attr title "finished frame sequences, count"
statistic mobilityDrones.drones[1].wlan[0].mac.dcf frameSequenceDuration:histogram
field count 3666
field mean 0.0001048090461113
field stddev 1.4674020826578e-005
field min 5e-005
field max 0.000109
field sum 0.38422996304402
field sqrsum 4.1059948955681e-005
attr source frameSequenceDuration(frameSequenceFinished)
attr title "frame sequence durations, histogram"
bin	-inf	0
bin	3.5e-005	0
bin	3.6e-005	0
bin	3.7e-005	0
bin	3.8e-005	0
bin	3.9e-005	0
bin	4e-005	0
bin	4.1e-005	0
bin	4.2e-005	0
bin	4.3e-005	0
bin	4.4e-005	0
bin	4.5e-005	0
bin	4.6e-005	0
bin	4.7e-005	0
bin	4.8e-005	0
bin	4.9e-005	242
bin	5e-005	0
bin	5.1e-005	0
bin	5.2e-005	0
bin	5.3e-005	0
bin	5.4e-005	0
bin	5.5e-005	0
bin	5.6e-005	0
bin	5.7e-005	0
bin	5.8e-005	0
bin	5.9e-005	0
bin	6e-005	0
bin	6.1e-005	0
bin	6.2e-005	0
bin	6.3e-005	0
bin	6.4e-005	0
bin	6.5e-005	0
bin	6.6e-005	0
bin	6.7e-005	0
bin	6.8e-005	0
bin	6.9e-005	0
bin	7e-005	0
bin	7.1e-005	0
bin	7.2e-005	0
bin	7.3e-005	0
bin	7.4e-005	0
bin	7.5e-005	0
bin	7.6e-005	0
bin	7.7e-005	0
bin	7.8e-005	0
bin	7.9e-005	0
bin	8e-005	0
bin	8.1e-005	0
bin	8.2e-005	0
bin	8.3e-005	0
bin	8.4e-005	0
bin	8.5e-005	0
bin	8.6e-005	0
bin	8.7e-005	0
bin	8.8e-005	0
bin	8.9e-005	0
bin	9e-005	0
bin	9.1e-005	0
bin	9.2e-005	0
bin	9.3e-005	0
bin	9.4e-005	3
bin	9.5e-005	0
bin	9.6e-005	0
bin	9.7e-005	1
bin	9.8e-005	94
bin	9.9e-005	0
bin	0.0001	0
bin	0.000101	0
bin	0.000102	8
bin	0.000103	0
bin	0.000104	0
bin	0.000105	2
bin	0.000106	0
bin	0.000107	0
bin	0.000108	3316
bin	0.000109	0
bin	0.00011	0
bin	0.000111	0
bin	0.000112	0
bin	0.000113	0
bin	0.000114	0
bin	0.000115	0
bin	0.000116	0
bin	0.000117	0
bin	0.000118	0
bin	0.000119	0
bin	0.00012	0
bin	0.000121	0
bin	0.000122	0
bin	0.000123	0
bin	0.000124	0
statistic mobilityDrones.drones[1].wlan[0].mac.dcf frameSequenceNumPackets:histogram
field count 3666
field mean 1.9339879978178
field stddev 0.24833694899853
field min 1
field max 2
field sum 7090
field sqrsum 13938
attr source frameSequenceNumPackets(frameSequenceFinished)
attr title "frame sequences: number of packets, histogram"
bin	-inf	0
bin	0	0
bin	1	242
bin	2	3424
bin	3	0
scalar mobilityDrones.drones[1].wlan[0].mac packetReceivedFromLower:count 478
attr interpolationmode none
attr title "packets received from lower layer, count"
scalar mobilityDrones.drones[1].wlan[0].mac packetReceivedFromLower:sum(packetBytes) 26810
attr interpolationmode none
attr title "packets received from lower layer, sum(packetBytes)"
scalar mobilityDrones.drones[1].wlan[0].mac packetSentToLower:count 3790
attr interpolationmode none
attr title "packets sent to lower layer, count"
scalar mobilityDrones.drones[1].wlan[0].mac packetSentToLower:sum(packetBytes) 267283
attr interpolationmode none
attr title "packets sent to lower layer, sum(packetBytes)"
scalar mobilityDrones.drones[1].wlan[0].mac packetReceivedFromUpper:count 819
attr interpolationmode none
attr title "packets received from upper layer, count"
scalar mobilityDrones.drones[1].wlan[0].mac packetReceivedFromUpper:sum(packetBytes) 34802
attr interpolationmode none
attr title "packets received from upper layer, sum(packetBytes)"
scalar mobilityDrones.drones[1].wlan[0].mac packetSentToUpper:count 175
attr interpolationmode none
attr title "packets sent to upper layer, count"
scalar mobilityDrones.drones[1].wlan[0].mac packetSentToUpper:sum(packetBytes) 7421
attr interpolationmode none
attr title "packets sent to upper layer, sum(packetBytes)"
scalar mobilityDrones.drones[1].wlan[0].mac packetDrop:count 668
attr interpolationmode none
attr source packetDropped
attr title "packet drops, count"
scalar mobilityDrones.drones[1].wlan[0].mac packetDrop:sum(packetBytes) 47388
attr interpolationmode none
attr source packetDropped
attr title "packet drops, sum(packetBytes)"
scalar mobilityDrones.drones[1].wlan[0].mac packetDropIncorrectlyReceived:count 76
attr interpolationmode none
attr source packetDropReasonIsIncorrectlyReceived(packetDropped)
attr title "packet drops: incorrectly received, count"
scalar mobilityDrones.drones[1].wlan[0].mac packetDropIncorrectlyReceived:sum(packetBytes) 5199
attr interpolationmode none
attr source packetDropReasonIsIncorrectlyReceived(packetDropped)
attr title "packet drops: incorrectly received, sum(packetBytes)"
scalar mobilityDrones.drones[1].wlan[0].mac packetDropNotAddressedToUs:count 115
attr interpolationmode none
attr source packetDropReasonIsNotAddressedToUs(packetDropped)
attr title "packet drops: not addressed to us, count"
scalar mobilityDrones.drones[1].wlan[0].mac packetDropNotAddressedToUs:sum(packetBytes) 7368
attr interpolationmode none
attr source packetDropReasonIsNotAddressedToUs(packetDropped)
attr title "packet drops: not addressed to us, sum(packetBytes)"
scalar mobilityDrones.drones[1].wlan[0].mac packetDropQueueOverflow:count 0
attr interpolationmode none
attr source packetDropReasonIsQueueOverflow(packetDropped)
attr title "packet drops: queue overflow, count"
scalar mobilityDrones.drones[1].wlan[0].mac packetDropQueueOverflow:sum(packetBytes) 0
attr interpolationmode none
attr source packetDropReasonIsQueueOverflow(packetDropped)
attr title "packet drops: queue overflow, sum(packetBytes)"
scalar mobilityDrones.drones[1].wlan[0].mac packetDropRetryLimitReached:count 471
attr interpolationmode none
attr source packetDropReasonIsRetryLimitReached(packetDropped)
attr title "packet drops: retry limit reached, count"
scalar mobilityDrones.drones[1].wlan[0].mac packetDropRetryLimitReached:sum(packetBytes) 34383
attr interpolationmode none
attr source packetDropReasonIsRetryLimitReached(packetDropped)
attr title "packet drops: retry limit reached, sum(packetBytes)"
scalar mobilityDrones.drones[1].wlan[0].mac packetDropDuplicateDetected:count 6
attr interpolationmode none
attr source packetDropReasonIsDuplicateDetected(packetDropped)
attr title "packet drops: duplicate detected, count"
scalar mobilityDrones.drones[1].wlan[0].mac packetDropDuplicateDetected:sum(packetBytes) 438
attr interpolationmode none
attr source packetDropReasonIsDuplicateDetected(packetDropped)
attr title "packet drops: duplicate detected, sum(packetBytes)"
scalar mobilityDrones.drones[1].wlan[0].mac packetDropOther:count 0
attr interpolationmode none
attr source packetDropReasonIsOther(packetDropped)
attr title "packet drops: other, count"
scalar mobilityDrones.drones[1].wlan[0].mac packetDropOther:sum(packetBytes) 0
attr interpolationmode none
attr source packetDropReasonIsOther(packetDropped)
attr title "packet drops: other, sum(packetBytes)"
scalar mobilityDrones.drones[1].wlan[0].mac linkBroken:count 471
attr interpolationmode none
attr title "link breaks, count"
statistic mobilityDrones.drones[1].wlan[0].radio minSnir:histogram
field count 478
field mean 5059863683.8346
field stddev 20869142973.688
field min 14.512034106951
field max 91755054109.427
field sum 2418614840872.9
field sqrsum 2.1998143967214e+023
attr source minimumSnir(packetSentToUpper)
attr title "Min SNIR, histogram"
bin	-inf	0
bin	0	451
bin	2000000000	0
bin	4000000000	0
bin	6000000000	0
bin	8000000000	0
bin	10000000000	0
bin	12000000000	0
bin	14000000000	0
bin	16000000000	0
bin	18000000000	0
bin	20000000000	0
bin	22000000000	0
bin	24000000000	0
bin	26000000000	0
bin	28000000000	0
bin	30000000000	0
bin	32000000000	1
bin	34000000000	0
bin	36000000000	0
bin	38000000000	0
bin	40000000000	0
bin	42000000000	0
bin	44000000000	0
bin	46000000000	0
bin	48000000000	0
bin	50000000000	0
bin	52000000000	0
bin	54000000000	0
bin	56000000000	0
bin	58000000000	0
bin	60000000000	0
bin	62000000000	0
bin	64000000000	0
bin	66000000000	0
bin	68000000000	0
bin	70000000000	0
bin	72000000000	0
bin	74000000000	0
bin	76000000000	0
bin	78000000000	0
bin	80000000000	0
bin	82000000000	0
bin	84000000000	0
bin	86000000000	0
bin	88000000000	0
bin	90000000000	26
bin	92000000000	0
bin	94000000000	0
bin	96000000000	0
bin	98000000000	0
bin	100000000000	0
bin	102000000000	0
bin	104000000000	0
bin	106000000000	0
bin	108000000000	0
bin	110000000000	0
bin	112000000000	0
bin	114000000000	0
bin	116000000000	0
statistic mobilityDrones.drones[1].wlan[0].radio packetErrorRate:histogram
field count 478
field mean 0.16221054953612
field stddev 0.2538275852595
field min 0
field max 0.88616945684709
field sum 77.536642678268
field sqrsum 43.309628747473
attr source packetErrorRate(packetSentToUpper)
attr title "Packet error rate, histogram"
bin	-inf	0
bin	0	278
bin	0.02	13
bin	0.04	9
bin	0.06	8
bin	0.08	6
bin	0.1	5
bin	0.12	5
bin	0.14	11
bin	0.16	9
bin	0.18	7
bin	0.2	0
bin	0.22	2
bin	0.24	3
bin	0.26	4
bin	0.28	3
bin	0.3	3
bin	0.32	8
bin	0.34	2
bin	0.36	0
bin	0.38	6
bin	0.4	5
bin	0.42	7
bin	0.44	4
bin	0.46	4
bin	0.48	3
bin	0.5	6
bin	0.52	2
bin	0.54	1
bin	0.56	4
bin	0.58	8
bin	0.6	4
bin	0.62	7
bin	0.64	11
bin	0.66	0
bin	0.68	5
bin	0.7	0
bin	0.72	0
bin	0.74	3
bin	0.76	3
bin	0.78	0
bin	0.8	6
bin	0.82	7
bin	0.84	3
bin	0.86	2
bin	0.88	1
bin	0.9	0
bin	0.92	0
bin	0.94	0
bin	0.96	0
bin	0.98	0
bin	1	0
bin	1.02	0
statistic mobilityDrones.drones[1].wlan[0].radio bitErrorRate:histogram
field count 0
field mean nan
field stddev nan
field min nan
field max nan
field sum 0
field sqrsum 0
attr source bitErrorRate(packetSentToUpper)
attr title "Bit error rate, histogram"
bin	-inf	0
bin	0	0
bin	1	0
statistic mobilityDrones.drones[1].wlan[0].radio symbolErrorRate:histogram
field count 0
field mean nan
field stddev nan
field min nan
field max nan
field sum 0
field sqrsum 0
attr source symbolErrorRate(packetSentToUpper)
attr title "Symbol error rate, histogram"
bin	-inf	0
bin	0	0
bin	1	0
scalar mobilityDrones.drones[1].wlan[0].radio transmissionState:count 15160
attr interpolationmode sample-hold
attr source transmissionStateChanged
attr title "Radio transmission state, count"
scalar mobilityDrones.drones[1].wlan[0].radio receptionState:count 8663
attr interpolationmode sample-hold
attr source receptionStateChanged
attr title "Radio reception state, count"
scalar mobilityDrones.drones[1].wlan[0].radio radioMode:count 7583
attr interpolationmode sample-hold
attr source radioModeChanged
attr title "Radio mode, count"
statistic mobilityDrones.drones[1].wlan[0].radio radioChannel:histogram
field count 1
field mean 0
field stddev nan
field min 0
field max 0
field sum 0
field sqrsum 0
attr interpolationmode sample-hold
attr source radioChannelChanged
attr title "Radio channel, histogram"
bin	-inf	0
bin	-0.5	0
bin	-0.48	0
bin	-0.46	0
bin	-0.44	0
bin	-0.42	0
bin	-0.4	0
bin	-0.38	0
bin	-0.36	0
bin	-0.34	0
bin	-0.32	0
bin	-0.3	0
bin	-0.28	0
bin	-0.26	0
bin	-0.24	0
bin	-0.22	0
bin	-0.2	0
bin	-0.18	0
bin	-0.16	0
bin	-0.14	0
bin	-0.12	0
bin	-0.1	0
bin	-0.08	0
bin	-0.06	0
bin	-0.04	0
bin	-0.02	0
bin	0	1
bin	0.02	0
bin	0.04	0
bin	0.06	0
bin	0.08	0
bin	0.1	0
bin	0.12	0
bin	0.14	0
bin	0.16	0
bin	0.18	0
bin	0.2	0
bin	0.22	0
bin	0.24	0
bin	0.26	0
bin	0.28	0
bin	0.3	0
bin	0.32	0
bin	0.34	0
bin	0.36	0
bin	0.38	0
bin	0.4	0
bin	0.42	0
bin	0.44	0
bin	0.46	0
bin	0.48	0
bin	0.5	0
scalar mobilityDrones.drones[1].ipv4.ip packetDropAddressResolutionFailed:count 118
attr interpolationmode none
attr source packetDropReasonIsAddressResolutionFailed(packetDropped)
attr title "packet drop: address resolution failed, count"
scalar mobilityDrones.drones[1].ipv4.ip packetDropAddressResolutionFailed:sum(packetBytes) 4366
attr interpolationmode none
attr source packetDropReasonIsAddressResolutionFailed(packetDropped)
attr title "packet drop: address resolution failed, sum(packetBytes)"
scalar mobilityDrones.drones[1].ipv4.ip packetDropHopLimitReached:count 0
attr interpolationmode none
attr source packetDropReasonIsHopLimitReached(packetDropped)
attr title "packet drop: hop limit reached, count"
scalar mobilityDrones.drones[1].ipv4.ip packetDropHopLimitReached:sum(packetBytes) 0
attr interpolationmode none
attr source packetDropReasonIsHopLimitReached(packetDropped)
attr title "packet drop: hop limit reached, sum(packetBytes)"
scalar mobilityDrones.drones[1].ipv4.ip packetDropForwardingDisabled:count 0
attr interpolationmode none
attr source packetDropReasonIsForwardingDisabled(packetDropped)
attr title "packet drop: forwarding disabled, count"
scalar mobilityDrones.drones[1].ipv4.ip packetDropForwardingDisabled:sum(packetBytes) 0
attr interpolationmode none
attr source packetDropReasonIsForwardingDisabled(packetDropped)
attr title "packet drop: forwarding disabled, sum(packetBytes)"
scalar mobilityDrones.drones[1].ipv4.ip packetDropNoInterfaceFound:count 0
attr interpolationmode none
attr source packetDropReasonIsNoInterfaceFound(packetDropped)
attr title "packet drop: no interface found, count"
scalar mobilityDrones.drones[1].ipv4.ip packetDropNoInterfaceFound:sum(packetBytes) 0
attr interpolationmode none
attr source packetDropReasonIsNoInterfaceFound(packetDropped)
attr title "packet drop: no interface found, sum(packetBytes)"
scalar mobilityDrones.drones[1].ipv4.ip packetDropNoRouteFound:count 0
attr interpolationmode none
attr source packetDropReasonIsNoRouteFound(packetDropped)
attr title "packet drop: no route found, count"
scalar mobilityDrones.drones[1].ipv4.ip packetDropNoRouteFound:sum(packetBytes) 0
attr interpolationmode none
attr source packetDropReasonIsNoRouteFound(packetDropped)
attr title "packet drop: no route found, sum(packetBytes)"
scalar mobilityDrones.drones[1].ipv4.ip packetDropUndefined:count 0
attr interpolationmode none
attr source packetDropReasonIsUndefined(packetDropped)
attr title "packet drop: undefined, count"
scalar mobilityDrones.drones[1].ipv4.ip packetDropUndefined:sum(packetBytes) 0
attr interpolationmode none
attr source packetDropReasonIsUndefined(packetDropped)
attr title "packet drop: undefined, sum(packetBytes)"
scalar mobilityDrones.drones[1].ipv4.arp arpReplySent:count 3
attr source arpReplySent
attr title "ARP replies sent, count"
scalar mobilityDrones.drones[1].ipv4.arp arpReplySent:sum(packetBytes) 84
attr source arpReplySent
attr title "ARP replies sent, sum(packetBytes)"
scalar mobilityDrones.drones[1].ipv4.arp arpRequestSent:count 242
attr source arpRequestSent
attr title "ARP request sent, count"
scalar mobilityDrones.drones[1].ipv4.arp arpRequestSent:sum(packetBytes) 6776
attr source arpRequestSent
attr title "ARP request sent, sum(packetBytes)"
scalar mobilityDrones.drones[1].ipv4.arp arpResolutionFailed:count 79
attr title "ARP failed resolutions, count"
scalar mobilityDrones.drones[1].ipv4.arp arpResolutionCompleted:count 59
attr title "ARP completed resolutions, count"
scalar mobilityDrones.drones[1].ipv4.arp arpResolutionInitiated:count 84
attr title "ARP initiated resolutions, count"
scalar mobilityDrones.drones[1].udp packetReceived:count 109
attr interpolationmode none
attr source packetReceived
attr title "packets received, count"
scalar mobilityDrones.drones[1].udp packetReceived:sum(packetBytes) 1853
attr interpolationmode none
attr source packetReceived
attr title "packets received, sum(packetBytes)"
scalar mobilityDrones.drones[1].udp packetSent:count 685
attr interpolationmode none
attr source packetSent
attr title "packets sent, count"
scalar mobilityDrones.drones[1].udp packetSent:sum(packetBytes) 11645
attr interpolationmode none
attr source packetSent
attr title "packets sent, sum(packetBytes)"
scalar mobilityDrones.drones[1].udp passedUpPk:count 101
attr interpolationmode none
attr source packetSentToUpper
attr title "packets passed up, count"
scalar mobilityDrones.drones[1].udp droppedPkWrongPort:count 8
attr interpolationmode none
attr source packetDropReasonIsNoPortFound(packetDropped)
attr title "packets dropped (wrong port), count"
scalar mobilityDrones.drones[1].udp droppedPkBadChecksum:count 0
attr interpolationmode none
attr source packetDropReasonIsIncorrectlyReceived(packetDropped)
attr title "packets dropped (checksum error), count"
scalar mobilityDrones.drones[1].app[0] "packets sent" 685
scalar mobilityDrones.drones[1].app[0] "packets received" 0
scalar mobilityDrones.drones[1].app[0] packetReceived:count 101
attr interpolationmode none
attr source packetReceived
attr title "packets received, count"
scalar mobilityDrones.drones[1].app[0] packetReceived:sum(packetBytes) 909
attr interpolationmode none
attr source packetReceived
attr title "packets received, sum(packetBytes)"
statistic mobilityDrones.drones[1].app[0] rcvdPkLifetime:stats
field count 101
field mean 0.038462368811822
field stddev 0.23308409190208
field min 5.4204659e-005
field max 2.018639173892
field sum 3.884699249994
field sqrsum 5.5822341250579
attr interpolationmode none
attr source dataAge(packetReceived)
attr title "received packet lifetime, stats"
attr unit s
scalar mobilityDrones.drones[1].app[0] packetSent:count 685
attr interpolationmode none
attr source packetSent
attr title "packets sent, count"
scalar mobilityDrones.drones[1].app[0] packetSent:sum(packetBytes) 6165
attr interpolationmode none
attr source packetSent
attr title "packets sent, sum(packetBytes)"
scalar mobilityDrones.drones[2].lo[0].lo rcvdPkFromHl:count 0
attr interpolationmode none
attr source packetReceivedFromUpper
attr title "packets received from higher layer, count"
scalar mobilityDrones.drones[2].lo[0].lo rcvdPkFromHl:sum(packetBytes) 0
attr interpolationmode none
attr source packetReceivedFromUpper
attr title "packets received from higher layer, sum(packetBytes)"
scalar mobilityDrones.drones[2].lo[0].lo passedUpPk:count 0
attr interpolationmode none
attr source packetSentToUpper
attr title "packets passed to higher layer, count"
scalar mobilityDrones.drones[2].lo[0].lo passedUpPk:sum(packetBytes) 0
attr interpolationmode none
attr source packetSentToUpper
attr title "packets passed to higher layer, sum(packetBytes)"
scalar mobilityDrones.drones[2].wlan[0].mac.dcf.channelAccess.pendingQueue packetPopped:count 791
attr interpolationmode none
attr title "packet popped, count"
scalar mobilityDrones.drones[2].wlan[0].mac.dcf.channelAccess.pendingQueue packetPopped:sum(packetBytes) 55412
attr interpolationmode none
attr title "packet popped, sum(packetBytes)"
statistic mobilityDrones.drones[2].wlan[0].mac.dcf.channelAccess.pendingQueue queueingTime:histogram
field count 791
field mean 0.00012156206087105
field stddev 0.0011430225148987
field min 0
field max 0.019734
field sum 0.096155590149
field sqrsum 0.0010438242426594
attr interpolationmode none
attr source queueingTime(packetPopped)
attr title "queueing times, histogram"
attr unit s
bin	-inf	0
bin	0	764
bin	0.00034	16
bin	0.00068	2
bin	0.00102	0
bin	0.00136	1
bin	0.0017	1
bin	0.00204	0
bin	0.00238	0
bin	0.00272	0
bin	0.00306	0
bin	0.0034	0
bin	0.00374	0
bin	0.00408	0
bin	0.00442	0
bin	0.00476	1
bin	0.0051	0
bin	0.00544	0
bin	0.00578	0
bin	0.00612	0
bin	0.00646	0
bin	0.0068	0
bin	0.00714	0
bin	0.00748	0
bin	0.00782	1
bin	0.00816	0
bin	0.0085	0
bin	0.00884	0
bin	0.00918	1
bin	0.00952	0
bin	0.00986	1
bin	0.0102	1
bin	0.01054	0
bin	0.01088	0
bin	0.01122	0
bin	0.01156	0
bin	0.0119	0
bin	0.01224	0
bin	0.01258	0
bin	0.01292	0
bin	0.01326	0
bin	0.0136	0
bin	0.01394	0
bin	0.01428	0
bin	0.01462	0
bin	0.01496	0
bin	0.0153	0
bin	0.01564	0
bin	0.01598	0
bin	0.01632	1
bin	0.01666	0
bin	0.017	0
bin	0.01734	0
bin	0.01768	0
bin	0.01802	0
bin	0.01836	0
bin	0.0187	0
bin	0.01904	0
bin	0.01938	0
bin	0.01972	1
bin	0.02006	0
scalar mobilityDrones.drones[2].wlan[0].mac.dcf.channelAccess.pendingQueue queueLength:max 2
attr interpolationmode sample-hold
attr source "count(packetPushed) - count(packetPopped) - count(packetRemoved) - count(packetDropped)"
attr title "queue length, max"
scalar mobilityDrones.drones[2].wlan[0].mac.dcf.channelAccess.pendingQueue queueLength:timeavg 0.00013906461356156
attr interpolationmode sample-hold
attr source "count(packetPushed) - count(packetPopped) - count(packetRemoved) - count(packetDropped)"
attr title "queue length, timeavg"
scalar mobilityDrones.drones[2].wlan[0].mac.dcf.channelAccess.pendingQueue packetPushed:count 791
attr interpolationmode none
attr title "packet pushed, count"
scalar mobilityDrones.drones[2].wlan[0].mac.dcf.channelAccess.pendingQueue packetPushed:sum(packetBytes) 55412
attr interpolationmode none
attr title "packet pushed, sum(packetBytes)"
scalar mobilityDrones.drones[2].wlan[0].mac.dcf.channelAccess.pendingQueue packetDropQueueOverflow:count 0
attr interpolationmode none
attr source packetDropReasonIsQueueOverflow(packetDropped)
attr title "packet drops: queue overflow, count"
scalar mobilityDrones.drones[2].wlan[0].mac.dcf.channelAccess.pendingQueue packetDropQueueOverflow:sum(packetBytes) 0
attr interpolationmode none
attr source packetDropReasonIsQueueOverflow(packetDropped)
attr title "packet drops: queue overflow, sum(packetBytes)"
scalar mobilityDrones.drones[2].wlan[0].mac.dcf.channelAccess.pendingQueue packetRemoved:count 0
attr interpolationmode none
attr title "packets removed, count"
scalar mobilityDrones.drones[2].wlan[0].mac.dcf.channelAccess.pendingQueue packetRemoved:sum(packetBytes) 0
attr interpolationmode none
attr title "packets removed, sum(packetBytes)"
statistic mobilityDrones.drones[2].wlan[0].mac.dcf.channelAccess.inProgressFrames queueingTime:histogram
field count 791
field mean 0.026079165848353
field stddev 0.029235318709474
field min 5e-005
field max 0.107637
field sum 20.628620186047
field sqrsum 1.2131932564898
attr interpolationmode none
attr source queueingTime(packetDequeued)
attr title "queueing times, histogram"
bin	-inf	0
bin	0	375
bin	0.002	4
bin	0.004	0
bin	0.006	1
bin	0.008	1
bin	0.01	1
bin	0.012	3
bin	0.014	5
bin	0.016	7
bin	0.018	9
bin	0.02	10
bin	0.022	16
bin	0.024	12
bin	0.026	14
bin	0.028	9
bin	0.03	12
bin	0.032	16
bin	0.034	13
bin	0.036	15
bin	0.038	12
bin	0.04	7
bin	0.042	14
bin	0.044	12
bin	0.046	12
bin	0.048	10
bin	0.05	18
bin	0.052	8
bin	0.054	9
bin	0.056	13
bin	0.058	14
bin	0.06	8
bin	0.062	8
bin	0.064	9
bin	0.066	10
bin	0.068	13
bin	0.07	12
bin	0.072	9
bin	0.074	15
bin	0.076	10
bin	0.078	10
bin	0.08	8
bin	0.082	8
bin	0.084	5
bin	0.086	6
bin	0.088	3
bin	0.09	1
bin	0.092	1
bin	0.094	0
bin	0.096	0
bin	0.098	1
bin	0.1	0
bin	0.102	1
bin	0.104	0
bin	0.106	1
bin	0.108	0
bin	0.11	0
bin	0.112	0
bin	0.114	0
bin	0.116	0
scalar mobilityDrones.drones[2].wlan[0].mac.dcf.channelAccess.inProgressFrames queueLength:max 2
attr interpolationmode sample-hold
attr source "count(packetEnqueued) - count(packetDequeued)"
attr title "queue length, max"
scalar mobilityDrones.drones[2].wlan[0].mac.dcf.channelAccess.inProgressFrames queueLength:timeavg 0.029834077997036
attr interpolationmode sample-hold
attr source "count(packetEnqueued) - count(packetDequeued)"
attr title "queue length, timeavg"
scalar mobilityDrones.drones[2].wlan[0].mac.dcf.channelAccess.contention stateChanged:count 29612
attr interpolationmode none
attr title "contention state changed, count"
scalar mobilityDrones.drones[2].wlan[0].mac.dcf.channelAccess.contention channelAccessGranted:count 3270
attr title "channel access granted, count"
scalar mobilityDrones.drones[2].wlan[0].mac.dcf.channelAccess channelOwnershipChanged:count 6540
attr interpolationmode sample-hold
attr title "channel ownership, count"
scalar mobilityDrones.drones[2].wlan[0].mac.dcf.originatorMacDataService packetAggregated:count 0
attr title "packets aggregated, count"
scalar mobilityDrones.drones[2].wlan[0].mac.dcf.originatorMacDataService packetFragmented:count 0
attr title "packets fragmented, count"
scalar mobilityDrones.drones[2].wlan[0].mac.dcf.recipientMacDataService packetDropDuplicateDetected:count 4
attr interpolationmode none
attr source packetDropReasonIsDuplicateDetected(packetDropped)
attr title "packet drops: duplicate detected, count"
scalar mobilityDrones.drones[2].wlan[0].mac.dcf.recipientMacDataService packetDropDuplicateDetected:sum(packetBytes) 292
attr interpolationmode none
attr source packetDropReasonIsDuplicateDetected(packetDropped)
attr title "packet drops: duplicate detected, sum(packetBytes)"
scalar mobilityDrones.drones[2].wlan[0].mac.dcf.recipientMacDataService packetDeaggregated:count 0
attr title "packets deaggregated, count"
scalar mobilityDrones.drones[2].wlan[0].mac.dcf.recipientMacDataService packetDefragmented:count 158
attr title "packets defragmented, count"
scalar mobilityDrones.drones[2].wlan[0].mac.dcf.recoveryProcedure retryLimitReached:count 410
attr title "retry limit reached, count"
scalar mobilityDrones.drones[2].wlan[0].mac.dcf packetReceivedFromPeer:count 271
attr interpolationmode none
attr title "packets received, count"
scalar mobilityDrones.drones[2].wlan[0].mac.dcf packetReceivedFromPeer:sum(packetBytes) 12924
attr interpolationmode none
attr title "packets received, sum(packetBytes)"
scalar mobilityDrones.drones[2].wlan[0].mac.dcf packetReceivedFromPeerUnicast:count 216
attr interpolationmode none
attr source ieee80211Unicast(packetReceivedFromPeer)
attr title "packets received: unicast, count"
scalar mobilityDrones.drones[2].wlan[0].mac.dcf packetReceivedFromPeerUnicast:sum(packetBytes) 9404
attr interpolationmode none
attr source ieee80211Unicast(packetReceivedFromPeer)
attr title "packets received: unicast, sum(packetBytes)"
scalar mobilityDrones.drones[2].wlan[0].mac.dcf packetReceivedFromPeerMulticast:count 55
attr interpolationmode none
attr source ieee80211Multicast(packetReceivedFromPeer)
attr title "packets received: multicast, count"
scalar mobilityDrones.drones[2].wlan[0].mac.dcf packetReceivedFromPeerMulticast:sum(packetBytes) 3520
attr interpolationmode none
attr source ieee80211Multicast(packetReceivedFromPeer)
attr title "packets received: multicast, sum(packetBytes)"
scalar mobilityDrones.drones[2].wlan[0].mac.dcf packetReceivedFromPeerBroadcast:count 55
attr interpolationmode none
attr source ieee80211Broadcast(packetReceivedFromPeer)
attr title "packets received: broadcast, count"
scalar mobilityDrones.drones[2].wlan[0].mac.dcf packetReceivedFromPeerBroadcast:sum(packetBytes) 3520
attr interpolationmode none
attr source ieee80211Broadcast(packetReceivedFromPeer)
attr title "packets received: broadcast, sum(packetBytes)"
scalar mobilityDrones.drones[2].wlan[0].mac.dcf packetReceivedFromPeerWithRetry:count 13
attr interpolationmode none
attr source ieee80211Retry(packetReceivedFromPeer)
attr title "packets received: with retry, count"
scalar mobilityDrones.drones[2].wlan[0].mac.dcf packetReceivedFromPeerWithRetry:sum(packetBytes) 949
attr interpolationmode none
attr source ieee80211Retry(packetReceivedFromPeer)
attr title "packets received: with retry, sum(packetBytes)"
scalar mobilityDrones.drones[2].wlan[0].mac.dcf packetReceivedFromPeerWithoutRetry:count 258
attr interpolationmode none
attr source ieee80211NotRetry(packetReceivedFromPeer)
attr title "packets received: without retry, count"
scalar mobilityDrones.drones[2].wlan[0].mac.dcf packetReceivedFromPeerWithoutRetry:sum(packetBytes) 11975
attr interpolationmode none
attr source ieee80211NotRetry(packetReceivedFromPeer)
attr title "packets received: without retry, sum(packetBytes)"
scalar mobilityDrones.drones[2].wlan[0].mac.dcf packetSentToPeer:count 3377
attr interpolationmode none
attr title "packets sent, count"
scalar mobilityDrones.drones[2].wlan[0].mac.dcf packetSentToPeer:sum(packetBytes) 237859
attr interpolationmode none
attr title "packets sent, sum(packetBytes)"
scalar mobilityDrones.drones[2].wlan[0].mac.dcf packetSentToPeerUnicast:count 3105
attr interpolationmode none
attr source ieee80211Unicast(packetSentToPeer)
attr title "packets sent: unicast, count"
scalar mobilityDrones.drones[2].wlan[0].mac.dcf packetSentToPeerUnicast:sum(packetBytes) 220451
attr interpolationmode none
attr source ieee80211Unicast(packetSentToPeer)
attr title "packets sent: unicast, sum(packetBytes)"
scalar mobilityDrones.drones[2].wlan[0].mac.dcf packetSentToPeerMulticast:count 272
attr interpolationmode none
attr source ieee80211Multicast(packetSentToPeer)
attr title "packets sent: multicast, count"
scalar mobilityDrones.drones[2].wlan[0].mac.dcf packetSentToPeerMulticast:sum(packetBytes) 17408
attr interpolationmode none
attr source ieee80211Multicast(packetSentToPeer)
attr title "packets sent: multicast, sum(packetBytes)"
scalar mobilityDrones.drones[2].wlan[0].mac.dcf packetSentToPeerBroadcast:count 272
attr interpolationmode none
attr source ieee80211Broadcast(packetSentToPeer)
attr title "packets sent: broadcast , count"
scalar mobilityDrones.drones[2].wlan[0].mac.dcf packetSentToPeerBroadcast:sum(packetBytes) 17408
attr interpolationmode none
attr source ieee80211Broadcast(packetSentToPeer)
attr title "packets sent: broadcast , sum(packetBytes)"
scalar mobilityDrones.drones[2].wlan[0].mac.dcf packetSentToPeerWithRetry:count 2479
attr interpolationmode none
attr source ieee80211Retry(packetSentToPeer)
attr title "packets sent: with retry, count"
scalar mobilityDrones.drones[2].wlan[0].mac.dcf packetSentToPeerWithRetry:sum(packetBytes) 180949
attr interpolationmode none
attr source ieee80211Retry(packetSentToPeer)
attr title "packets sent: with retry, sum(packetBytes)"
scalar mobilityDrones.drones[2].wlan[0].mac.dcf packetSentToPeerWithoutRetry:count 898
attr interpolationmode none
attr source ieee80211NotRetry(packetSentToPeer)
attr title "packets sent: without retry, count"
scalar mobilityDrones.drones[2].wlan[0].mac.dcf packetSentToPeerWithoutRetry:sum(packetBytes) 56910
attr interpolationmode none
attr source ieee80211NotRetry(packetSentToPeer)
attr title "packets sent: without retry, sum(packetBytes)"
scalar mobilityDrones.drones[2].wlan[0].mac.dcf packetDrop:count 658
attr interpolationmode none
attr source packetDropped
attr title "packet drops, count"
scalar mobilityDrones.drones[2].wlan[0].mac.dcf packetDrop:sum(packetBytes) 46366
attr interpolationmode none
[...]
attr title "packets sent: unicast, sum(packetBytes)"
scalar mobilityDrones.drones[3].wlan[0].mac.dcf packetSentToPeerMulticast:count 612
attr interpolationmode none
attr source ieee80211Multicast(packetSentToPeer)
attr title "packets sent: multicast, count"
scalar mobilityDrones.drones[3].wlan[0].mac.dcf packetSentToPeerMulticast:sum(packetBytes) 39168
attr interpolationmode none
attr source ieee80211Multicast(packetSentToPeer)
attr title "packets sent: multicast, sum(packetBytes)"
scalar mobilityDrones.drones[3].wlan[0].mac.dcf packetSentToPeerBroadcast:count 612
attr interpolationmode none
attr source ieee80211Broadcast(packetSentToPeer)
attr title "packets sent: broadcast , count"
scalar mobilityDrones.drones[3].wlan[0].mac.dcf packetSentToPeerBroadcast:sum(packetBytes) 39168
attr interpolationmode none
attr source ieee80211Broadcast(packetSentToPeer)
attr title "packets sent: broadcast , sum(packetBytes)"
scalar mobilityDrones.drones[3].wlan[0].mac.dcf packetSentToPeerWithRetry:count 1339
attr interpolationmode none
attr source ieee80211Retry(packetSentToPeer)
attr title "packets sent: with retry, count"
scalar mobilityDrones.drones[3].wlan[0].mac.dcf packetSentToPeerWithRetry:sum(packetBytes) 97747
attr interpolationmode none
attr source ieee80211Retry(packetSentToPeer)
attr title "packets sent: with retry, sum(packetBytes)"
scalar mobilityDrones.drones[3].wlan[0].mac.dcf packetSentToPeerWithoutRetry:count 938
attr interpolationmode none
attr source ieee80211NotRetry(packetSentToPeer)
attr title "packets sent: without retry, count"
scalar mobilityDrones.drones[3].wlan[0].mac.dcf packetSentToPeerWithoutRetry:sum(packetBytes) 60042
attr interpolationmode none
attr source ieee80211NotRetry(packetSentToPeer)
attr title "packets sent: without retry, sum(packetBytes)"
scalar mobilityDrones.drones[3].wlan[0].mac.dcf packetDrop:count 553
attr interpolationmode none
attr source packetDropped
attr title "packet drops, count"
scalar mobilityDrones.drones[3].wlan[0].mac.dcf packetDrop:sum(packetBytes) 38473
attr interpolationmode none
attr source packetDropped
attr title "packet drops, sum(packetBytes)"
scalar mobilityDrones.drones[3].wlan[0].mac.dcf packetDropNotAddressedToUs:count 329
attr interpolationmode none
attr source packetDropReasonIsNotAddressedToUs(packetDropped)
attr title "packet drops: not addressed to us, count"
scalar mobilityDrones.drones[3].wlan[0].mac.dcf packetDropNotAddressedToUs:sum(packetBytes) 22130
attr interpolationmode none
attr source packetDropReasonIsNotAddressedToUs(packetDropped)
attr title "packet drops: not addressed to us, sum(packetBytes)"
scalar mobilityDrones.drones[3].wlan[0].mac.dcf packetDropQueueOverflow:count 0
attr interpolationmode none
attr source packetDropReasonIsQueueOverflow(packetDropped)
attr title "packet drops: queue overflow, count"
scalar mobilityDrones.drones[3].wlan[0].mac.dcf packetDropQueueOverflow:sum(packetBytes) 0
attr interpolationmode none
attr source packetDropReasonIsQueueOverflow(packetDropped)
attr title "packet drops: queue overflow, sum(packetBytes)"
scalar mobilityDrones.drones[3].wlan[0].mac.dcf packetDropRetryLimitReached:count 222
attr interpolationmode none
attr source packetDropReasonIsRetryLimitReached(packetDropped)
attr title "packet drops: retry limit reached, count"
scalar mobilityDrones.drones[3].wlan[0].mac.dcf packetDropRetryLimitReached:sum(packetBytes) 16206
attr interpolationmode none
attr source packetDropReasonIsRetryLimitReached(packetDropped)
attr title "packet drops: retry limit reached, sum(packetBytes)"
scalar mobilityDrones.drones[3].wlan[0].mac.dcf linkBroken:count 222
attr interpolationmode none
attr title "link breaks, count"
scalar mobilityDrones.drones[3].wlan[0].mac.dcf frameSequenceFinished:count 2225
attr title "finished frame sequences, count"
statistic mobilityDrones.drones[3].wlan[0].mac.dcf frameSequenceDuration:histogram
field count 2225
field mean 9.2540246457076e-005
field stddev 2.6253171098007e-005
field min 5e-005
field max 0.000109
field sum 0.20590204836699
field sqrsum 2.0587071581666e-005
attr source frameSequenceDuration(frameSequenceFinished)
attr title "frame sequence durations, histogram"
bin	-inf	0
bin	4.95e-005	612
bin	5.1e-005	0
bin	5.25e-005	0
bin	5.4e-005	0
bin	5.55e-005	0
bin	5.7e-005	0
bin	5.85e-005	0
bin	6e-005	0
bin	6.15e-005	0
bin	6.3e-005	0
bin	6.45e-005	0
bin	6.6e-005	0
bin	6.75e-005	0
bin	6.9e-005	0
bin	7.05e-005	0
bin	7.2e-005	0
bin	7.35e-005	0
bin	7.5e-005	0
bin	7.65e-005	0
bin	7.8e-005	0
bin	7.95e-005	0
bin	8.1e-005	0
bin	8.25e-005	0
bin	8.4e-005	0
bin	8.55e-005	0
bin	8.7e-005	0
bin	8.85e-005	0
bin	9e-005	0
bin	9.15e-005	0
bin	9.3e-005	2
bin	9.45e-005	1
bin	9.6e-005	0
bin	9.75e-005	40
bin	9.9e-005	0
bin	0.0001005	0
bin	0.000102	9
bin	0.0001035	0
bin	0.000105	0
bin	0.0001065	0
bin	0.000108	1561
bin	0.0001095	0
bin	0.000111	0
bin	0.0001125	0
bin	0.000114	0
statistic mobilityDrones.drones[3].wlan[0].mac.dcf frameSequenceNumPackets:histogram
field count 2225
field mean 1.7249438202247
field stddev 0.44664296271292
field min 1
field max 2
field sum 3838
field sqrsum 7064
attr source frameSequenceNumPackets(frameSequenceFinished)
attr title "frame sequences: number of packets, histogram"
bin	-inf	0
bin	1	612
bin	2	1613
bin	3	0
scalar mobilityDrones.drones[3].wlan[0].mac packetReceivedFromLower:count 480
attr interpolationmode none
attr title "packets received from lower layer, count"
scalar mobilityDrones.drones[3].wlan[0].mac packetReceivedFromLower:sum(packetBytes) 29787
attr interpolationmode none
attr title "packets received from lower layer, sum(packetBytes)"
scalar mobilityDrones.drones[3].wlan[0].mac packetSentToLower:count 2277
attr interpolationmode none
attr title "packets sent to lower layer, count"
scalar mobilityDrones.drones[3].wlan[0].mac packetSentToLower:sum(packetBytes) 157789
attr interpolationmode none
attr title "packets sent to lower layer, sum(packetBytes)"
scalar mobilityDrones.drones[3].wlan[0].mac packetReceivedFromUpper:count 886
attr interpolationmode none
attr title "packets received from upper layer, count"
scalar mobilityDrones.drones[3].wlan[0].mac packetReceivedFromUpper:sum(packetBytes) 34506
attr interpolationmode none
attr title "packets received from upper layer, sum(packetBytes)"
scalar mobilityDrones.drones[3].wlan[0].mac packetSentToUpper:count 64
attr interpolationmode none
attr title "packets sent to upper layer, count"
scalar mobilityDrones.drones[3].wlan[0].mac packetSentToUpper:sum(packetBytes) 2736
attr interpolationmode none
attr title "packets sent to upper layer, sum(packetBytes)"
scalar mobilityDrones.drones[3].wlan[0].mac packetDrop:count 586
attr interpolationmode none
attr source packetDropped
attr title "packet drops, count"
scalar mobilityDrones.drones[3].wlan[0].mac packetDrop:sum(packetBytes) 40737
attr interpolationmode none
attr source packetDropped
attr title "packet drops, sum(packetBytes)"
scalar mobilityDrones.drones[3].wlan[0].mac packetDropIncorrectlyReceived:count 33
attr interpolationmode none
attr source packetDropReasonIsIncorrectlyReceived(packetDropped)
attr title "packet drops: incorrectly received, count"
scalar mobilityDrones.drones[3].wlan[0].mac packetDropIncorrectlyReceived:sum(packetBytes) 2264
attr interpolationmode none
attr source packetDropReasonIsIncorrectlyReceived(packetDropped)
attr title "packet drops: incorrectly received, sum(packetBytes)"
scalar mobilityDrones.drones[3].wlan[0].mac packetDropNotAddressedToUs:count 329
attr interpolationmode none
attr source packetDropReasonIsNotAddressedToUs(packetDropped)
attr title "packet drops: not addressed to us, count"
scalar mobilityDrones.drones[3].wlan[0].mac packetDropNotAddressedToUs:sum(packetBytes) 22130
attr interpolationmode none
attr source packetDropReasonIsNotAddressedToUs(packetDropped)
attr title "packet drops: not addressed to us, sum(packetBytes)"
scalar mobilityDrones.drones[3].wlan[0].mac packetDropQueueOverflow:count 0
attr interpolationmode none
attr source packetDropReasonIsQueueOverflow(packetDropped)
attr title "packet drops: queue overflow, count"
scalar mobilityDrones.drones[3].wlan[0].mac packetDropQueueOverflow:sum(packetBytes) 0
attr interpolationmode none
attr source packetDropReasonIsQueueOverflow(packetDropped)
attr title "packet drops: queue overflow, sum(packetBytes)"
scalar mobilityDrones.drones[3].wlan[0].mac packetDropRetryLimitReached:count 222
attr interpolationmode none
attr source packetDropReasonIsRetryLimitReached(packetDropped)
attr title "packet drops: retry limit reached, count"
scalar mobilityDrones.drones[3].wlan[0].mac packetDropRetryLimitReached:sum(packetBytes) 16206
attr interpolationmode none
attr source packetDropReasonIsRetryLimitReached(packetDropped)
attr title "packet drops: retry limit reached, sum(packetBytes)"
scalar mobilityDrones.drones[3].wlan[0].mac packetDropDuplicateDetected:count 2
attr interpolationmode none
attr source packetDropReasonIsDuplicateDetected(packetDropped)
attr title "packet drops: duplicate detected, count"
scalar mobilityDrones.drones[3].wlan[0].mac packetDropDuplicateDetected:sum(packetBytes) 137
attr interpolationmode none
attr source packetDropReasonIsDuplicateDetected(packetDropped)
attr title "packet drops: duplicate detected, sum(packetBytes)"
scalar mobilityDrones.drones[3].wlan[0].mac packetDropOther:count 0
attr interpolationmode none
attr source packetDropReasonIsOther(packetDropped)
attr title "packet drops: other, count"
scalar mobilityDrones.drones[3].wlan[0].mac packetDropOther:sum(packetBytes) 0
attr interpolationmode none
attr source packetDropReasonIsOther(packetDropped)
attr title "packet drops: other, sum(packetBytes)"
scalar mobilityDrones.drones[3].wlan[0].mac linkBroken:count 222
attr interpolationmode none
attr title "link breaks, count"
statistic mobilityDrones.drones[3].wlan[0].radio minSnir:histogram
field count 480
field mean 8479597473.3019
field stddev 26524874828.946
field min 14.845339509589
field max 91755054109.427
field sum 4070206787184.9
field sqrsum 3.7152325885554e+023
attr source minimumSnir(packetSentToUpper)
attr title "Min SNIR, histogram"
bin	-inf	0
bin	0	435
bin	2000000000	0
bin	4000000000	0
bin	6000000000	0
bin	8000000000	0
bin	10000000000	0
bin	12000000000	0
bin	14000000000	0
bin	16000000000	0
bin	18000000000	0
bin	20000000000	0
bin	22000000000	0
bin	24000000000	0
bin	26000000000	0
bin	28000000000	0
bin	30000000000	0
bin	32000000000	1
bin	34000000000	0
bin	36000000000	0
bin	38000000000	0
bin	40000000000	0
bin	42000000000	0
bin	44000000000	0
bin	46000000000	0
bin	48000000000	0
bin	50000000000	0
bin	52000000000	0
bin	54000000000	0
bin	56000000000	0
bin	58000000000	0
bin	60000000000	0
bin	62000000000	0
bin	64000000000	0
bin	66000000000	0
bin	68000000000	0
bin	70000000000	0
bin	72000000000	0
bin	74000000000	0
bin	76000000000	0
bin	78000000000	0
bin	80000000000	0
bin	82000000000	0
bin	84000000000	0
bin	86000000000	0
bin	88000000000	0
bin	90000000000	44
bin	92000000000	0
bin	94000000000	0
bin	96000000000	0
bin	98000000000	0
bin	100000000000	0
bin	102000000000	0
bin	104000000000	0
bin	106000000000	0
bin	108000000000	0
bin	110000000000	0
bin	112000000000	0
bin	114000000000	0
bin	116000000000	0
statistic mobilityDrones.drones[3].wlan[0].radio packetErrorRate:histogram
field count 480
field mean 0.075949427680104
field stddev 0.18586708588729
field min 0
field max 0.7865163455018
field sum 36.45572528645
field sqrsum 19.316600233345
attr source packetErrorRate(packetSentToUpper)
attr title "Packet error rate, histogram"
bin	-inf	0
bin	0	360
bin	0.018	13
bin	0.036	9
bin	0.054	8
bin	0.072	5
bin	0.09	1
bin	0.108	6
bin	0.126	8
bin	0.144	5
bin	0.162	4
bin	0.18	1
bin	0.198	3
bin	0.216	3
bin	0.234	6
bin	0.252	1
bin	0.27	2
bin	0.288	1
bin	0.306	1
bin	0.324	2
bin	0.342	2
bin	0.36	2
bin	0.378	0
bin	0.396	5
bin	0.414	0
bin	0.432	0
bin	0.45	0
bin	0.468	0
bin	0.486	0
bin	0.504	0
bin	0.522	0
bin	0.54	2
bin	0.558	2
bin	0.576	0
bin	0.594	0
bin	0.612	0
bin	0.63	1
bin	0.648	1
bin	0.666	2
bin	0.684	3
bin	0.702	7
bin	0.72	3
bin	0.738	2
bin	0.756	6
bin	0.774	3
bin	0.792	0
statistic mobilityDrones.drones[3].wlan[0].radio bitErrorRate:histogram
field count 0
field mean nan
field stddev nan
field min nan
field max nan
field sum 0
field sqrsum 0
attr source bitErrorRate(packetSentToUpper)
attr title "Bit error rate, histogram"
bin	-inf	0
bin	0	0
bin	1	0
statistic mobilityDrones.drones[3].wlan[0].radio symbolErrorRate:histogram
field count 0
field mean nan
field stddev nan
field min nan
field max nan
field sum 0
field sqrsum 0
attr source symbolErrorRate(packetSentToUpper)
attr title "Symbol error rate, histogram"
bin	-inf	0
bin	0	0
bin	1	0
scalar mobilityDrones.drones[3].wlan[0].radio transmissionState:count 9108
attr interpolationmode sample-hold
attr source transmissionStateChanged
attr title "Radio transmission state, count"
scalar mobilityDrones.drones[3].wlan[0].radio receptionState:count 5587
attr interpolationmode sample-hold
attr source receptionStateChanged
attr title "Radio reception state, count"
scalar mobilityDrones.drones[3].wlan[0].radio radioMode:count 4557
attr interpolationmode sample-hold
attr source radioModeChanged
attr title "Radio mode, count"
statistic mobilityDrones.drones[3].wlan[0].radio radioChannel:histogram
field count 1
field mean 0
field stddev nan
field min 0
field max 0
field sum 0
field sqrsum 0
attr interpolationmode sample-hold
attr source radioChannelChanged
attr title "Radio channel, histogram"
bin	-inf	0
bin	-0.5	0
bin	-0.48	0
bin	-0.46	0
bin	-0.44	0
bin	-0.42	0
bin	-0.4	0
bin	-0.38	0
bin	-0.36	0
bin	-0.34	0
bin	-0.32	0
bin	-0.3	0
bin	-0.28	0
bin	-0.26	0
bin	-0.24	0
bin	-0.22	0
bin	-0.2	0
bin	-0.18	0
bin	-0.16	0
bin	-0.14	0
bin	-0.12	0
bin	-0.1	0
bin	-0.08	0
bin	-0.06	0
bin	-0.04	0
bin	-0.02	0
bin	0	1
bin	0.02	0
bin	0.04	0
bin	0.06	0
bin	0.08	0
bin	0.1	0
bin	0.12	0
bin	0.14	0
bin	0.16	0
bin	0.18	0
bin	0.2	0
bin	0.22	0
bin	0.24	0
bin	0.26	0
bin	0.28	0
bin	0.3	0
bin	0.32	0
bin	0.34	0
bin	0.36	0
bin	0.38	0
bin	0.4	0
bin	0.42	0
bin	0.44	0
bin	0.46	0
bin	0.48	0
bin	0.5	0
scalar mobilityDrones.drones[3].ipv4.ip packetDropAddressResolutionFailed:count 333
attr interpolationmode none
attr source packetDropReasonIsAddressResolutionFailed(packetDropped)
attr title "packet drop: address resolution failed, count"
scalar mobilityDrones.drones[3].ipv4.ip packetDropAddressResolutionFailed:sum(packetBytes) 12321
attr interpolationmode none
attr source packetDropReasonIsAddressResolutionFailed(packetDropped)
attr title "packet drop: address resolution failed, sum(packetBytes)"
scalar mobilityDrones.drones[3].ipv4.ip packetDropHopLimitReached:count 0
attr interpolationmode none
attr source packetDropReasonIsHopLimitReached(packetDropped)
attr title "packet drop: hop limit reached, count"
scalar mobilityDrones.drones[3].ipv4.ip packetDropHopLimitReached:sum(packetBytes) 0
attr interpolationmode none
attr source packetDropReasonIsHopLimitReached(packetDropped)
attr title "packet drop: hop limit reached, sum(packetBytes)"
scalar mobilityDrones.drones[3].ipv4.ip packetDropForwardingDisabled:count 0
attr interpolationmode none
attr source packetDropReasonIsForwardingDisabled(packetDropped)
attr title "packet drop: forwarding disabled, count"
scalar mobilityDrones.drones[3].ipv4.ip packetDropForwardingDisabled:sum(packetBytes) 0
attr interpolationmode none
attr source packetDropReasonIsForwardingDisabled(packetDropped)
attr title "packet drop: forwarding disabled, sum(packetBytes)"
scalar mobilityDrones.drones[3].ipv4.ip packetDropNoInterfaceFound:count 0
attr interpolationmode none
attr source packetDropReasonIsNoInterfaceFound(packetDropped)
attr title "packet drop: no interface found, count"
scalar mobilityDrones.drones[3].ipv4.ip packetDropNoInterfaceFound:sum(packetBytes) 0
attr interpolationmode none
attr source packetDropReasonIsNoInterfaceFound(packetDropped)
attr title "packet drop: no interface found, sum(packetBytes)"
scalar mobilityDrones.drones[3].ipv4.ip packetDropNoRouteFound:count 0
attr interpolationmode none
attr source packetDropReasonIsNoRouteFound(packetDropped)
attr title "packet drop: no route found, count"
scalar mobilityDrones.drones[3].ipv4.ip packetDropNoRouteFound:sum(packetBytes) 0
attr interpolationmode none
attr source packetDropReasonIsNoRouteFound(packetDropped)
attr title "packet drop: no route found, sum(packetBytes)"
scalar mobilityDrones.drones[3].ipv4.ip packetDropUndefined:count 0
attr interpolationmode none
attr source packetDropReasonIsUndefined(packetDropped)
attr title "packet drop: undefined, count"
scalar mobilityDrones.drones[3].ipv4.ip packetDropUndefined:sum(packetBytes) 0
attr interpolationmode none
attr source packetDropReasonIsUndefined(packetDropped)
attr title "packet drop: undefined, sum(packetBytes)"
scalar mobilityDrones.drones[3].ipv4.arp arpReplySent:count 3
attr source arpReplySent
attr title "ARP replies sent, count"
scalar mobilityDrones.drones[3].ipv4.arp arpReplySent:sum(packetBytes) 84
attr source arpReplySent
attr title "ARP replies sent, sum(packetBytes)"
scalar mobilityDrones.drones[3].ipv4.arp arpRequestSent:count 612
attr source arpRequestSent
attr title "ARP request sent, count"
scalar mobilityDrones.drones[3].ipv4.arp arpRequestSent:sum(packetBytes) 17136
attr source arpRequestSent
attr title "ARP request sent, sum(packetBytes)"
scalar mobilityDrones.drones[3].ipv4.arp arpResolutionFailed:count 201
attr title "ARP failed resolutions, count"
scalar mobilityDrones.drones[3].ipv4.arp arpResolutionCompleted:count 14
attr title "ARP completed resolutions, count"
scalar mobilityDrones.drones[3].ipv4.arp arpResolutionInitiated:count 205
attr title "ARP initiated resolutions, count"
scalar mobilityDrones.drones[3].udp packetReceived:count 48
attr interpolationmode none
attr source packetReceived
attr title "packets received, count"
scalar mobilityDrones.drones[3].udp packetReceived:sum(packetBytes) 816
attr interpolationmode none
attr source packetReceived
attr title "packets received, sum(packetBytes)"
scalar mobilityDrones.drones[3].udp packetSent:count 597
attr interpolationmode none
attr source packetSent
attr title "packets sent, count"
scalar mobilityDrones.drones[3].udp packetSent:sum(packetBytes) 10149
attr interpolationmode none
attr source packetSent
attr title "packets sent, sum(packetBytes)"
scalar mobilityDrones.drones[3].udp passedUpPk:count 39
attr interpolationmode none
attr source packetSentToUpper
attr title "packets passed up, count"
scalar mobilityDrones.drones[3].udp droppedPkWrongPort:count 9
attr interpolationmode none
attr source packetDropReasonIsNoPortFound(packetDropped)
attr title "packets dropped (wrong port), count"
scalar mobilityDrones.drones[3].udp droppedPkBadChecksum:count 0
attr interpolationmode none
attr source packetDropReasonIsIncorrectlyReceived(packetDropped)
attr title "packets dropped (checksum error), count"
scalar mobilityDrones.drones[3].app[0] "packets sent" 597
scalar mobilityDrones.drones[3].app[0] "packets received" 0
scalar mobilityDrones.drones[3].app[0] packetReceived:count 39
attr interpolationmode none
attr source packetReceived
attr title "packets received, count"
scalar mobilityDrones.drones[3].app[0] packetReceived:sum(packetBytes) 351
attr interpolationmode none
attr source packetReceived
attr title "packets received, sum(packetBytes)"
statistic mobilityDrones.drones[3].app[0] rcvdPkLifetime:stats
field count 39
field mean 0.001740817203
field stddev 0.0037949383350733
field min 5.4295698e-005
field max 0.017414253502
field sum 0.067891870917
field sqrsum 0.00066544650158251
attr interpolationmode none
attr source dataAge(packetReceived)
attr title "received packet lifetime, stats"
attr unit s
scalar mobilityDrones.drones[3].app[0] packetSent:count 597
attr interpolationmode none
attr source packetSent
attr title "packets sent, count"
scalar mobilityDrones.drones[3].app[0] packetSent:sum(packetBytes) 5373
attr interpolationmode none
attr source packetSent
attr title "packets sent, sum(packetBytes)"

