version 2
run Sim4drone-0-20210713-11:52:01-15380
attr configname Sim4drone
attr datetime 20210713-11:52:01
attr experiment Sim4drone
attr inifile mobilityDrones-omnetpp.ini
attr iterationvars ""
attr iterationvarsf ""
attr measurement ""
attr network mobilityDrones
attr processid 15380
attr repetition 0
attr replication #0
attr resultdir results
attr runnumber 0
attr seedset 0
param *.numUAVs 4
param *.drones[0].app[0].destAddresses "\"drones[1] drones[2] drones[3]\""
param *.drones[1].app[0].destAddresses "\"drones[0] drones[2] drones[3]\""
param *.drones[2].app[0].destAddresses "\"drones[0] drones[1] drones[3]\""
param *.drones[3].app[0].destAddresses "\"drones[0] drones[1] drones[2]\""
param *.drones[*].mobility.waypointFile "\"paths/cross_over.txt\""
param *.drones[*].app[*].timeoutDuration 5s
param *.drones[0].mobility.startTime 0s
param *.drones[1].mobility.startTime 40s
param *.drones[2].mobility.startTime 80s
param *.drones[3].mobility.startTime 110s
param *.drones[0].app[*].startTime "normal(1s, 1s)"
param *.drones[1].app[*].startTime "normal(40s, 1s)"
param *.drones[2].app[*].startTime "normal(80s, 1s)"
param *.drones[3].app[*].startTime "normal(110s, 1s)"
param *.visualizer.osgVisualizer.typename "\"IntegratedOsgVisualizer\""
param *.visualizer.osgVisualizer.sceneVisualizer.typename "\"SceneOsgEarthVisualizer\""
param *.visualizer.osgVisualizer.sceneVisualizer.mapFile "\"map.earth\""
param *.visualizer.osgVisualizer.sceneVisualizer.sceneImageSize 10000m
param *.visualizer.osgVisualizer.sceneVisualizer.axisLength 500m
param *.visualizer.osgVisualizer.sceneVisualizer.sceneMinX -200m
param *.visualizer.osgVisualizer.sceneVisualizer.sceneMinY -200m
param *.visualizer.osgVisualizer.sceneVisualizer.sceneMinZ 0m
param *.visualizer.osgVisualizer.sceneVisualizer.sceneMaxX 5000m
param *.visualizer.osgVisualizer.sceneVisualizer.sceneMaxY 5000m
param *.visualizer.osgVisualizer.sceneVisualizer.sceneMaxZ 5000m
param *.visualizer.osgVisualizer.networkNodeVisualizer.displayModuleName true
param *.visualizer.*.mobilityVisualizer.displayMobility true
param *.visualizer.*.mobilityVisualizer.displayPositions true
param *.visualizer.*.mobilityVisualizer.displayOrientations true
param *.visualizer.*.mobilityVisualizer.displayVelocities true
param *.visualizer.*.mobilityVisualizer.displayMovementTrails true
param *.visualizer.*.mobilityVisualizer.animationSpeed 10
param *.visualizer.mediumVisualizer.displaySignals true
param **.constraintAreaMinX -5000m
param **.constraintAreaMinY -5000m
param **.constraintAreaMinZ -100m
param **.constraintAreaMaxX 5000m
param **.constraintAreaMaxY 5000m
param **.constraintAreaMaxZ 5000m
param *.drones*.wlan[0].radio.displayCommunicationRange true
param *.coordinateSystem.sceneLongitude -47.926634deg
param *.coordinateSystem.sceneLatitude -15.840075deg
param *.coordinateSystem.sceneHeading 90deg
param *.environment.ground.typename "\"FlatGround\""
param *.drones[*].osgModel "\"3d/drone.ive.80.scale.0,0,90.rot\""
param *.drones[*].mobility.coordinateSystemModule "\"coordinateSystem\""
param *.drones[*].mobility.waypointFile "\"paths/gradys-vai-e-volta-descendo-5s-v1.txt\""
param *.drones[*].mobility.waypointProximity 1m
param **.mobility.initFromDisplayString false
param *.drones[*].mobility.speed 10mps
param *.drones[*].numApps 1
param *.drones[*].app[0].typename "\"UdpMobileNodeCommunicationApp\""
param *.drones[*].app[0].localPort 1000
param *.drones[*].app[0].destPort 1000
param *.drones[*].app[0].sendInterval 1s
param *.drones[*].app[0].startTime 1s
param *.drones[*].app[0].stopTime -1s
param *.drones[*].app[0].messageLength 1454Byte
param *.drones[*].app[0].packetName "\"UAV-DEFAULT-PAYLOAD\""
param *.drones[*].mobility.typename "\"DroneMobility\""
param *.sensor.mobility.typename "\"StationaryMobility\""
param *.sensor*.mobility.coordinateSystemModule "\"\""

vector 0 mobilityDrones.drones[0].wlan[0].radio radioMode:vector ETV
attr interpolationmode sample-hold
attr source radioModeChanged
attr title "Radio mode, vector"
vector 1 mobilityDrones.drones[0].wlan[0].radio radioChannel:vector ETV
attr interpolationmode sample-hold
attr source radioChannelChanged
attr title "Radio channel, vector"
vector 2 mobilityDrones.drones[1].wlan[0].radio radioMode:vector ETV
attr interpolationmode sample-hold
attr source radioModeChanged
attr title "Radio mode, vector"
vector 3 mobilityDrones.drones[1].wlan[0].radio radioChannel:vector ETV
attr interpolationmode sample-hold
attr source radioChannelChanged
attr title "Radio channel, vector"
vector 4 mobilityDrones.drones[2].wlan[0].radio radioMode:vector ETV
attr interpolationmode sample-hold
attr source radioModeChanged
attr title "Radio mode, vector"
vector 5 mobilityDrones.drones[2].wlan[0].radio radioChannel:vector ETV
attr interpolationmode sample-hold
attr source radioChannelChanged
attr title "Radio channel, vector"
vector 6 mobilityDrones.drones[3].wlan[0].radio radioMode:vector ETV
attr interpolationmode sample-hold
attr source radioModeChanged
attr title "Radio mode, vector"
vector 7 mobilityDrones.drones[3].wlan[0].radio radioChannel:vector ETV
attr interpolationmode sample-hold
attr source radioChannelChanged
attr title "Radio channel, vector"
vector 8 mobilityDrones.drones[0].wlan[0].radio receptionState:vector ETV
attr interpolationmode sample-hold
attr source receptionStateChanged
attr title "Radio reception state, vector"
vector 9 mobilityDrones.drones[1].wlan[0].radio receptionState:vector ETV
attr interpolationmode sample-hold
attr source receptionStateChanged
attr title "Radio reception state, vector"
vector 10 mobilityDrones.drones[2].wlan[0].radio receptionState:vector ETV
attr interpolationmode sample-hold
attr source receptionStateChanged
attr title "Radio reception state, vector"
vector 11 mobilityDrones.drones[3].wlan[0].radio receptionState:vector ETV
attr interpolationmode sample-hold
attr source receptionStateChanged
attr title "Radio reception state, vector"
vector 12 mobilityDrones.drones[0].wlan[0].mac.dcf.recoveryProcedure contentionWindowChanged:vector ETV
attr interpolationmode sample-hold
attr title "contention window, vector"
vector 13 mobilityDrones.drones[1].wlan[0].mac.dcf.recoveryProcedure contentionWindowChanged:vector ETV
attr interpolationmode sample-hold
attr title "contention window, vector"
vector 14 mobilityDrones.drones[2].wlan[0].mac.dcf.recoveryProcedure contentionWindowChanged:vector ETV
attr interpolationmode sample-hold
attr title "contention window, vector"
vector 15 mobilityDrones.drones[3].wlan[0].mac.dcf.recoveryProcedure contentionWindowChanged:vector ETV
attr interpolationmode sample-hold
attr title "contention window, vector"
vector 16 mobilityDrones.drones[0].app[0] packetSent:vector(packetBytes) ETV
attr interpolationmode none
attr source packetSent
attr title "packets sent, vector(packetBytes)"
vector 17 mobilityDrones.drones[0].udp packetSent:vector(packetBytes) ETV
attr interpolationmode none
attr source packetSent
attr title "packets sent, vector(packetBytes)"
vector 18 mobilityDrones.drones[0].ipv4.arp arpRequestSent:vector(packetBytes) ETV
attr source arpRequestSent
attr title "ARP request sent, vector(packetBytes)"
vector 19 mobilityDrones.drones[0].wlan[0].mac packetReceivedFromUpper:vector(packetBytes) ETV
attr interpolationmode none
attr title "packets received from upper layer, vector(packetBytes)"
vector 20 mobilityDrones.drones[0].wlan[0].mac.dcf.channelAccess.pendingQueue packetPushed:vector(packetBytes) ETV
attr interpolationmode none
attr title "packet pushed, vector(packetBytes)"
vector 21 mobilityDrones.drones[0].wlan[0].mac.dcf.channelAccess.pendingQueue queueLength:vector ETV
attr interpolationmode sample-hold
attr source "count(packetPushed) - count(packetPopped) - count(packetRemoved) - count(packetDropped)"
attr title "queue length, vector"
vector 22 mobilityDrones.drones[0].wlan[0].mac.dcf.channelAccess.contention backoffPeriodGenerated:vector ETV
attr interpolationmode none
attr title "backoff periods, vector"
vector 23 mobilityDrones.drones[0].wlan[0].mac.dcf.channelAccess.contention backoffActive:vector ETV
attr interpolationmode sample-hold
attr source count(backoffStarted)-count(backoffStopped)
attr title "backoff active, vector"
vector 24 mobilityDrones.drones[0].wlan[0].mac.dcf.channelAccess.pendingQueue packetPopped:vector(packetBytes) ETV
attr interpolationmode none
attr title "packet popped, vector(packetBytes)"
vector 25 mobilityDrones.drones[0].wlan[0].mac.dcf.channelAccess.pendingQueue queueingTime:vector ETV
attr interpolationmode none
attr source queueingTime(packetPopped)
attr title "queueing times, vector"
attr unit s
vector 26 mobilityDrones.drones[0].wlan[0].mac.dcf.channelAccess.inProgressFrames queueLength:vector ETV
attr interpolationmode sample-hold
attr source "count(packetEnqueued) - count(packetDequeued)"
attr title "queue length, vector"
vector 27 mobilityDrones.drones[0].wlan[0].mac.dcf datarateSelected:vector ETV
attr interpolationmode none
attr title "datarates selected, vector"
vector 28 mobilityDrones.drones[0].wlan[0].mac packetSentToLower:vector(packetBytes) ETV
attr interpolationmode none
attr title "packets sent to lower layer, vector(packetBytes)"
vector 29 mobilityDrones.drones[0].wlan[0].mac.dcf frameSequenceActive:vector ETV
attr interpolationmode sample-hold
attr source count(frameSequenceStarted)-count(frameSequenceFinished)
attr title "frame sequence active, vector"
vector 30 mobilityDrones.drones[0].wlan[0].radio transmissionState:vector ETV
attr interpolationmode sample-hold
attr source transmissionStateChanged
attr title "Radio transmission state, vector"
vector 31 mobilityDrones.drones[0].wlan[0].mac.dcf packetSentToPeer:vector(packetBytes) ETV
attr interpolationmode none
attr title "packets sent, vector(packetBytes)"
vector 32 mobilityDrones.drones[0].wlan[0].mac.dcf packetSentToPeerMulticast:vector(packetBytes) ETV
attr interpolationmode none
attr source ieee80211Multicast(packetSentToPeer)
attr title "packets sent: multicast, vector(packetBytes)"
vector 33 mobilityDrones.drones[0].wlan[0].mac.dcf packetSentToPeerBroadcast:vector(packetBytes) ETV
attr interpolationmode none
attr source ieee80211Broadcast(packetSentToPeer)
attr title "packets sent: broadcast , vector(packetBytes)"
vector 34 mobilityDrones.drones[0].wlan[0].mac.dcf packetSentToPeerWithoutRetry:vector(packetBytes) ETV
attr interpolationmode none
attr source ieee80211NotRetry(packetSentToPeer)
attr title "packets sent: without retry, vector(packetBytes)"
vector 35 mobilityDrones.drones[0].wlan[0].mac.dcf.channelAccess.inProgressFrames queueingTime:vector ETV
attr interpolationmode none
attr source queueingTime(packetDequeued)
attr title "queueing times, vector"
vector 36 mobilityDrones.drones[1].wlan[0].mac packetReceivedFromLower:vector(packetBytes) ETV
attr interpolationmode none
attr title "packets received from lower layer, vector(packetBytes)"
vector 37 mobilityDrones.drones[1].wlan[0].mac.dcf packetReceivedFromPeer:vector(packetBytes) ETV
attr interpolationmode none
attr title "packets received, vector(packetBytes)"
vector 38 mobilityDrones.drones[1].wlan[0].mac.dcf packetReceivedFromPeerMulticast:vector(packetBytes) ETV
attr interpolationmode none
attr source ieee80211Multicast(packetReceivedFromPeer)
attr title "packets received: multicast, vector(packetBytes)"
vector 39 mobilityDrones.drones[1].wlan[0].mac.dcf packetReceivedFromPeerBroadcast:vector(packetBytes) ETV
attr interpolationmode none
attr source ieee80211Broadcast(packetReceivedFromPeer)
attr title "packets received: broadcast, vector(packetBytes)"
vector 40 mobilityDrones.drones[1].wlan[0].mac.dcf packetReceivedFromPeerWithoutRetry:vector(packetBytes) ETV
attr interpolationmode none
attr source ieee80211NotRetry(packetReceivedFromPeer)
attr title "packets received: without retry, vector(packetBytes)"
vector 41 mobilityDrones.drones[1].wlan[0].mac packetSentToUpper:vector(packetBytes) ETV
attr interpolationmode none
attr title "packets sent to upper layer, vector(packetBytes)"
vector 42 mobilityDrones.drones[2].wlan[0].mac packetReceivedFromLower:vector(packetBytes) ETV
attr interpolationmode none
attr title "packets received from lower layer, vector(packetBytes)"
vector 43 mobilityDrones.drones[2].wlan[0].mac.dcf packetReceivedFromPeer:vector(packetBytes) ETV
attr interpolationmode none
attr title "packets received, vector(packetBytes)"
vector 44 mobilityDrones.drones[2].wlan[0].mac.dcf packetReceivedFromPeerMulticast:vector(packetBytes) ETV
attr interpolationmode none
attr source ieee80211Multicast(packetReceivedFromPeer)
attr title "packets received: multicast, vector(packetBytes)"
vector 45 mobilityDrones.drones[2].wlan[0].mac.dcf packetReceivedFromPeerBroadcast:vector(packetBytes) ETV
attr interpolationmode none
attr source ieee80211Broadcast(packetReceivedFromPeer)
attr title "packets received: broadcast, vector(packetBytes)"
vector 46 mobilityDrones.drones[2].wlan[0].mac.dcf packetReceivedFromPeerWithoutRetry:vector(packetBytes) ETV
attr interpolationmode none
attr source ieee80211NotRetry(packetReceivedFromPeer)
attr title "packets received: without retry, vector(packetBytes)"
vector 47 mobilityDrones.drones[2].wlan[0].mac packetSentToUpper:vector(packetBytes) ETV
attr interpolationmode none
attr title "packets sent to upper layer, vector(packetBytes)"
vector 48 mobilityDrones.drones[3].wlan[0].mac packetReceivedFromLower:vector(packetBytes) ETV
attr interpolationmode none
attr title "packets received from lower layer, vector(packetBytes)"
vector 49 mobilityDrones.drones[3].wlan[0].mac.dcf packetReceivedFromPeer:vector(packetBytes) ETV
attr interpolationmode none
attr title "packets received, vector(packetBytes)"
vector 50 mobilityDrones.drones[3].wlan[0].mac.dcf packetReceivedFromPeerMulticast:vector(packetBytes) ETV
attr interpolationmode none
attr source ieee80211Multicast(packetReceivedFromPeer)
attr title "packets received: multicast, vector(packetBytes)"
vector 51 mobilityDrones.drones[3].wlan[0].mac.dcf packetReceivedFromPeerBroadcast:vector(packetBytes) ETV
attr interpolationmode none
attr source ieee80211Broadcast(packetReceivedFromPeer)
attr title "packets received: broadcast, vector(packetBytes)"
vector 52 mobilityDrones.drones[3].wlan[0].mac.dcf packetReceivedFromPeerWithoutRetry:vector(packetBytes) ETV
attr interpolationmode none
attr source ieee80211NotRetry(packetReceivedFromPeer)
attr title "packets received: without retry, vector(packetBytes)"
vector 53 mobilityDrones.drones[3].wlan[0].mac packetSentToUpper:vector(packetBytes) ETV
attr interpolationmode none
attr title "packets sent to upper layer, vector(packetBytes)"
vector 54 mobilityDrones.drones[3].ipv4.arp arpReplySent:vector(packetBytes) ETV
attr source arpReplySent
attr title "ARP replies sent, vector(packetBytes)"
vector 55 mobilityDrones.drones[3].wlan[0].mac packetReceivedFromUpper:vector(packetBytes) ETV
attr interpolationmode none
attr title "packets received from upper layer, vector(packetBytes)"
vector 56 mobilityDrones.drones[3].wlan[0].mac.dcf.channelAccess.pendingQueue packetPushed:vector(packetBytes) ETV
attr interpolationmode none
attr title "packet pushed, vector(packetBytes)"
vector 57 mobilityDrones.drones[3].wlan[0].mac.dcf.channelAccess.pendingQueue queueLength:vector ETV
attr interpolationmode sample-hold
attr source "count(packetPushed) - count(packetPopped) - count(packetRemoved) - count(packetDropped)"
attr title "queue length, vector"
vector 58 mobilityDrones.drones[3].wlan[0].mac.dcf.channelAccess.contention backoffPeriodGenerated:vector ETV
attr interpolationmode none
attr title "backoff periods, vector"
vector 59 mobilityDrones.drones[3].wlan[0].mac.dcf.channelAccess.contention backoffActive:vector ETV
attr interpolationmode sample-hold
attr source count(backoffStarted)-count(backoffStopped)
attr title "backoff active, vector"
vector 60 mobilityDrones.drones[3].wlan[0].mac.dcf.channelAccess.pendingQueue packetPopped:vector(packetBytes) ETV
attr interpolationmode none
attr title "packet popped, vector(packetBytes)"
vector 61 mobilityDrones.drones[3].wlan[0].mac.dcf.channelAccess.pendingQueue queueingTime:vector ETV
attr interpolationmode none
attr source queueingTime(packetPopped)
attr title "queueing times, vector"
attr unit s
vector 62 mobilityDrones.drones[3].wlan[0].mac.dcf.channelAccess.inProgressFrames queueLength:vector ETV
attr interpolationmode sample-hold
attr source "count(packetEnqueued) - count(packetDequeued)"
attr title "queue length, vector"
vector 63 mobilityDrones.drones[3].wlan[0].mac.dcf datarateSelected:vector ETV
attr interpolationmode none
attr title "datarates selected, vector"
vector 64 mobilityDrones.drones[3].wlan[0].mac packetSentToLower:vector(packetBytes) ETV
attr interpolationmode none
attr title "packets sent to lower layer, vector(packetBytes)"
vector 65 mobilityDrones.drones[3].wlan[0].mac.dcf frameSequenceActive:vector ETV
attr interpolationmode sample-hold
attr source count(frameSequenceStarted)-count(frameSequenceFinished)
attr title "frame sequence active, vector"
vector 66 mobilityDrones.drones[3].wlan[0].radio transmissionState:vector ETV
attr interpolationmode sample-hold
attr source transmissionStateChanged
attr title "Radio transmission state, vector"
vector 67 mobilityDrones.drones[3].wlan[0].mac.dcf packetSentToPeer:vector(packetBytes) ETV
attr interpolationmode none
attr title "packets sent, vector(packetBytes)"
vector 68 mobilityDrones.drones[3].wlan[0].mac.dcf packetSentToPeerUnicast:vector(packetBytes) ETV
attr interpolationmode none
attr source ieee80211Unicast(packetSentToPeer)
attr title "packets sent: unicast, vector(packetBytes)"
vector 69 mobilityDrones.drones[3].wlan[0].mac.dcf packetSentToPeerWithoutRetry:vector(packetBytes) ETV
attr interpolationmode none
attr source ieee80211NotRetry(packetSentToPeer)
attr title "packets sent: without retry, vector(packetBytes)"
vector 70 mobilityDrones.drones[3].wlan[0].mac.rx nav:vector ETV
attr interpolationmode linear
attr source navChanged
attr title "network allocation vector, vector"
vector 71 mobilityDrones.drones[1].wlan[0].mac.rx nav:vector ETV
attr interpolationmode linear
attr source navChanged
attr title "network allocation vector, vector"
vector 72 mobilityDrones.drones[1].wlan[0].mac.dcf packetDrop:vector(packetBytes) ETV
attr interpolationmode none
attr source packetDropped
attr title "packet drops, vector(packetBytes)"
vector 73 mobilityDrones.drones[1].wlan[0].mac.dcf packetDropNotAddressedToUs:vector(packetBytes) ETV
attr interpolationmode none
attr source packetDropReasonIsNotAddressedToUs(packetDropped)
attr title "packet drops: not addressed to us, vector(packetBytes)"
vector 74 mobilityDrones.drones[1].wlan[0].mac packetDrop:vector(packetBytes) ETV
attr interpolationmode none
attr source packetDropped
attr title "packet drops, vector(packetBytes)"
vector 75 mobilityDrones.drones[1].wlan[0].mac packetDropNotAddressedToUs:vector(packetBytes) ETV
attr interpolationmode none
attr source packetDropReasonIsNotAddressedToUs(packetDropped)
attr title "packet drops: not addressed to us, vector(packetBytes)"
vector 76 mobilityDrones.drones[2].wlan[0].mac.rx nav:vector ETV
attr interpolationmode linear
attr source navChanged
attr title "network allocation vector, vector"
vector 77 mobilityDrones.drones[2].wlan[0].mac.dcf packetDrop:vector(packetBytes) ETV
attr interpolationmode none
attr source packetDropped
attr title "packet drops, vector(packetBytes)"
vector 78 mobilityDrones.drones[2].wlan[0].mac.dcf packetDropNotAddressedToUs:vector(packetBytes) ETV
attr interpolationmode none
attr source packetDropReasonIsNotAddressedToUs(packetDropped)
attr title "packet drops: not addressed to us, vector(packetBytes)"
vector 79 mobilityDrones.drones[2].wlan[0].mac packetDrop:vector(packetBytes) ETV
attr interpolationmode none
attr source packetDropped
attr title "packet drops, vector(packetBytes)"
vector 80 mobilityDrones.drones[2].wlan[0].mac packetDropNotAddressedToUs:vector(packetBytes) ETV
attr interpolationmode none
attr source packetDropReasonIsNotAddressedToUs(packetDropped)
attr title "packet drops: not addressed to us, vector(packetBytes)"
vector 81 mobilityDrones.drones[0].wlan[0].mac packetReceivedFromLower:vector(packetBytes) ETV
attr interpolationmode none
attr title "packets received from lower layer, vector(packetBytes)"
vector 82 mobilityDrones.drones[0].wlan[0].mac.dcf packetReceivedFromPeer:vector(packetBytes) ETV
attr interpolationmode none
attr title "packets received, vector(packetBytes)"
vector 83 mobilityDrones.drones[0].wlan[0].mac.dcf packetReceivedFromPeerUnicast:vector(packetBytes) ETV
attr interpolationmode none
attr source ieee80211Unicast(packetReceivedFromPeer)
attr title "packets received: unicast, vector(packetBytes)"
vector 84 mobilityDrones.drones[0].wlan[0].mac.dcf packetReceivedFromPeerWithoutRetry:vector(packetBytes) ETV
attr interpolationmode none
attr source ieee80211NotRetry(packetReceivedFromPeer)
attr title "packets received: without retry, vector(packetBytes)"
vector 85 mobilityDrones.drones[0].wlan[0].mac packetSentToUpper:vector(packetBytes) ETV
attr interpolationmode none
attr title "packets sent to upper layer, vector(packetBytes)"
vector 86 mobilityDrones.drones[0].wlan[0].mac.dcf packetSentToPeerUnicast:vector(packetBytes) ETV
attr interpolationmode none
attr source ieee80211Unicast(packetSentToPeer)
attr title "packets sent: unicast, vector(packetBytes)"
vector 87 mobilityDrones.drones[3].wlan[0].mac.dcf packetReceivedFromPeerUnicast:vector(packetBytes) ETV
attr interpolationmode none
attr source ieee80211Unicast(packetReceivedFromPeer)
attr title "packets received: unicast, vector(packetBytes)"
vector 88 mobilityDrones.drones[3].wlan[0].mac.dcf.channelAccess.inProgressFrames queueingTime:vector ETV
attr interpolationmode none
attr source queueingTime(packetDequeued)
attr title "queueing times, vector"
vector 89 mobilityDrones.drones[0].wlan[0].mac.rx nav:vector ETV
attr interpolationmode linear
attr source navChanged
attr title "network allocation vector, vector"
vector 90 mobilityDrones.drones[3].udp packetReceived:vector(packetBytes) ETV
attr interpolationmode none
attr source packetReceived
attr title "packets received, vector(packetBytes)"
vector 91 mobilityDrones.drones[3].udp droppedPkWrongPort:vector(count) ETV
attr interpolationmode none
attr source packetDropReasonIsNoPortFound(packetDropped)
attr title "packets dropped (wrong port), vector(count)"
vector 92 mobilityDrones.drones[2].ipv4.arp arpReplySent:vector(packetBytes) ETV
attr source arpReplySent
attr title "ARP replies sent, vector(packetBytes)"
vector 93 mobilityDrones.drones[2].wlan[0].mac packetReceivedFromUpper:vector(packetBytes) ETV
attr interpolationmode none
attr title "packets received from upper layer, vector(packetBytes)"
vector 94 mobilityDrones.drones[2].wlan[0].mac.dcf.channelAccess.pendingQueue packetPushed:vector(packetBytes) ETV
attr interpolationmode none
attr title "packet pushed, vector(packetBytes)"
vector 95 mobilityDrones.drones[2].wlan[0].mac.dcf.channelAccess.pendingQueue queueLength:vector ETV
attr interpolationmode sample-hold
attr source "count(packetPushed) - count(packetPopped) - count(packetRemoved) - count(packetDropped)"
attr title "queue length, vector"
vector 96 mobilityDrones.drones[2].wlan[0].mac.dcf.channelAccess.contention backoffPeriodGenerated:vector ETV
attr interpolationmode none
attr title "backoff periods, vector"
vector 97 mobilityDrones.drones[2].wlan[0].mac.dcf.channelAccess.contention backoffActive:vector ETV
attr interpolationmode sample-hold
attr source count(backoffStarted)-count(backoffStopped)
attr title "backoff active, vector"
vector 98 mobilityDrones.drones[2].wlan[0].mac.dcf.channelAccess.pendingQueue packetPopped:vector(packetBytes) ETV
attr interpolationmode none
attr title "packet popped, vector(packetBytes)"
vector 99 mobilityDrones.drones[2].wlan[0].mac.dcf.channelAccess.pendingQueue queueingTime:vector ETV
attr interpolationmode none
attr source queueingTime(packetPopped)
attr title "queueing times, vector"
attr unit s
vector 100 mobilityDrones.drones[2].wlan[0].mac.dcf.channelAccess.inProgressFrames queueLength:vector ETV
attr interpolationmode sample-hold
attr source "count(packetEnqueued) - count(packetDequeued)"
attr title "queue length, vector"
vector 101 mobilityDrones.drones[2].wlan[0].mac.dcf datarateSelected:vector ETV
attr interpolationmode none
attr title "datarates selected, vector"
vector 102 mobilityDrones.drones[2].wlan[0].mac packetSentToLower:vector(packetBytes) ETV
attr interpolationmode none
attr title "packets sent to lower layer, vector(packetBytes)"
vector 103 mobilityDrones.drones[2].wlan[0].mac.dcf frameSequenceActive:vector ETV
attr interpolationmode sample-hold
attr source count(frameSequenceStarted)-count(frameSequenceFinished)
attr title "frame sequence active, vector"
vector 104 mobilityDrones.drones[2].wlan[0].radio transmissionState:vector ETV
attr interpolationmode sample-hold
attr source transmissionStateChanged
attr title "Radio transmission state, vector"
vector 105 mobilityDrones.drones[2].wlan[0].mac.dcf packetSentToPeer:vector(packetBytes) ETV
attr interpolationmode none
attr title "packets sent, vector(packetBytes)"
vector 106 mobilityDrones.drones[2].wlan[0].mac.dcf packetSentToPeerUnicast:vector(packetBytes) ETV
attr interpolationmode none
attr source ieee80211Unicast(packetSentToPeer)
attr title "packets sent: unicast, vector(packetBytes)"
vector 107 mobilityDrones.drones[2].wlan[0].mac.dcf packetSentToPeerWithoutRetry:vector(packetBytes) ETV
attr interpolationmode none
attr source ieee80211NotRetry(packetSentToPeer)
attr title "packets sent: without retry, vector(packetBytes)"
vector 108 mobilityDrones.drones[3].wlan[0].mac.dcf packetDrop:vector(packetBytes) ETV
attr interpolationmode none
attr source packetDropped
attr title "packet drops, vector(packetBytes)"
vector 109 mobilityDrones.drones[3].wlan[0].mac.dcf packetDropNotAddressedToUs:vector(packetBytes) ETV
attr interpolationmode none
attr source packetDropReasonIsNotAddressedToUs(packetDropped)
attr title "packet drops: not addressed to us, vector(packetBytes)"
vector 110 mobilityDrones.drones[3].wlan[0].mac packetDrop:vector(packetBytes) ETV
attr interpolationmode none
attr source packetDropped
attr title "packet drops, vector(packetBytes)"
vector 111 mobilityDrones.drones[3].wlan[0].mac packetDropNotAddressedToUs:vector(packetBytes) ETV
attr interpolationmode none
attr source packetDropReasonIsNotAddressedToUs(packetDropped)
attr title "packet drops: not addressed to us, vector(packetBytes)"
vector 112 mobilityDrones.drones[2].wlan[0].mac.dcf packetReceivedFromPeerUnicast:vector(packetBytes) ETV
attr interpolationmode none
attr source ieee80211Unicast(packetReceivedFromPeer)
attr title "packets received: unicast, vector(packetBytes)"
vector 113 mobilityDrones.drones[2].wlan[0].mac.dcf.channelAccess.inProgressFrames queueingTime:vector ETV
attr interpolationmode none
attr source queueingTime(packetDequeued)
attr title "queueing times, vector"
vector 114 mobilityDrones.drones[2].udp packetReceived:vector(packetBytes) ETV
attr interpolationmode none
attr source packetReceived
attr title "packets received, vector(packetBytes)"
vector 115 mobilityDrones.drones[2].udp droppedPkWrongPort:vector(count) ETV
attr interpolationmode none
attr source packetDropReasonIsNoPortFound(packetDropped)
attr title "packets dropped (wrong port), vector(count)"
vector 116 mobilityDrones.drones[1].ipv4.arp arpReplySent:vector(packetBytes) ETV
attr source arpReplySent
attr title "ARP replies sent, vector(packetBytes)"
vector 117 mobilityDrones.drones[1].wlan[0].mac packetReceivedFromUpper:vector(packetBytes) ETV
attr interpolationmode none
attr title "packets received from upper layer, vector(packetBytes)"
vector 118 mobilityDrones.drones[1].wlan[0].mac.dcf.channelAccess.pendingQueue packetPushed:vector(packetBytes) ETV
attr interpolationmode none
attr title "packet pushed, vector(packetBytes)"
vector 119 mobilityDrones.drones[1].wlan[0].mac.dcf.channelAccess.pendingQueue queueLength:vector ETV
attr interpolationmode sample-hold
attr source "count(packetPushed) - count(packetPopped) - count(packetRemoved) - count(packetDropped)"
attr title "queue length, vector"
vector 120 mobilityDrones.drones[1].wlan[0].mac.dcf.channelAccess.contention backoffPeriodGenerated:vector ETV
attr interpolationmode none
attr title "backoff periods, vector"
vector 121 mobilityDrones.drones[1].wlan[0].mac.dcf.channelAccess.contention backoffActive:vector ETV
attr interpolationmode sample-hold
attr source count(backoffStarted)-count(backoffStopped)
attr title "backoff active, vector"
vector 122 mobilityDrones.drones[1].wlan[0].mac.dcf.channelAccess.pendingQueue packetPopped:vector(packetBytes) ETV
attr interpolationmode none
attr title "packet popped, vector(packetBytes)"
vector 123 mobilityDrones.drones[1].wlan[0].mac.dcf.channelAccess.pendingQueue queueingTime:vector ETV
attr interpolationmode none
attr source queueingTime(packetPopped)
attr title "queueing times, vector"
attr unit s
vector 124 mobilityDrones.drones[1].wlan[0].mac.dcf.channelAccess.inProgressFrames queueLength:vector ETV
attr interpolationmode sample-hold
attr source "count(packetEnqueued) - count(packetDequeued)"
attr title "queue length, vector"
vector 125 mobilityDrones.drones[1].wlan[0].mac.dcf datarateSelected:vector ETV
attr interpolationmode none
attr title "datarates selected, vector"
vector 126 mobilityDrones.drones[1].wlan[0].mac packetSentToLower:vector(packetBytes) ETV
attr interpolationmode none
attr title "packets sent to lower layer, vector(packetBytes)"
vector 127 mobilityDrones.drones[1].wlan[0].mac.dcf frameSequenceActive:vector ETV
attr interpolationmode sample-hold
attr source count(frameSequenceStarted)-count(frameSequenceFinished)
attr title "frame sequence active, vector"
vector 128 mobilityDrones.drones[1].wlan[0].radio transmissionState:vector ETV
attr interpolationmode sample-hold
attr source transmissionStateChanged
attr title "Radio transmission state, vector"
vector 129 mobilityDrones.drones[1].wlan[0].mac.dcf packetSentToPeer:vector(packetBytes) ETV
attr interpolationmode none
attr title "packets sent, vector(packetBytes)"
vector 130 mobilityDrones.drones[1].wlan[0].mac.dcf packetSentToPeerUnicast:vector(packetBytes) ETV
attr interpolationmode none
attr source ieee80211Unicast(packetSentToPeer)
attr title "packets sent: unicast, vector(packetBytes)"
vector 131 mobilityDrones.drones[1].wlan[0].mac.dcf packetSentToPeerWithoutRetry:vector(packetBytes) ETV
attr interpolationmode none
attr source ieee80211NotRetry(packetSentToPeer)
attr title "packets sent: without retry, vector(packetBytes)"
vector 132 mobilityDrones.drones[1].wlan[0].mac.dcf packetReceivedFromPeerUnicast:vector(packetBytes) ETV
attr interpolationmode none
attr source ieee80211Unicast(packetReceivedFromPeer)
attr title "packets received: unicast, vector(packetBytes)"
vector 133 mobilityDrones.drones[1].wlan[0].mac.dcf.channelAccess.inProgressFrames queueingTime:vector ETV
attr interpolationmode none
attr source queueingTime(packetDequeued)
attr title "queueing times, vector"
vector 134 mobilityDrones.drones[1].udp packetReceived:vector(packetBytes) ETV
attr interpolationmode none
attr source packetReceived
attr title "packets received, vector(packetBytes)"
vector 135 mobilityDrones.drones[1].udp droppedPkWrongPort:vector(count) ETV
attr interpolationmode none
attr source packetDropReasonIsNoPortFound(packetDropped)
attr title "packets dropped (wrong port), vector(count)"
vector 136 mobilityDrones.drones[1].wlan[0].mac packetDropIncorrectlyReceived:vector(packetBytes) ETV
attr interpolationmode none
attr source packetDropReasonIsIncorrectlyReceived(packetDropped)
attr title "packet drops: incorrectly received, vector(packetBytes)"
vector 137 mobilityDrones.drones[0].wlan[0].mac packetDrop:vector(packetBytes) ETV
attr interpolationmode none
attr source packetDropped
attr title "packet drops, vector(packetBytes)"
vector 138 mobilityDrones.drones[0].wlan[0].mac packetDropIncorrectlyReceived:vector(packetBytes) ETV
attr interpolationmode none
attr source packetDropReasonIsIncorrectlyReceived(packetDropped)
attr title "packet drops: incorrectly received, vector(packetBytes)"
vector 139 mobilityDrones.drones[0].wlan[0].mac.dcf packetSentToPeerWithRetry:vector(packetBytes) ETV
attr interpolationmode none
attr source ieee80211Retry(packetSentToPeer)
attr title "packets sent: with retry, vector(packetBytes)"
vector 140 mobilityDrones.drones[3].wlan[0].mac.dcf packetReceivedFromPeerWithRetry:vector(packetBytes) ETV
attr interpolationmode none
attr source ieee80211Retry(packetReceivedFromPeer)
attr title "packets received: with retry, vector(packetBytes)"
vector 141 mobilityDrones.drones[3].wlan[0].mac.dcf.recipientMacDataService packetDropDuplicateDetected:vector(packetBytes) ETV
attr interpolationmode none
attr source packetDropReasonIsDuplicateDetected(packetDropped)
attr title "packet drops: duplicate detected, vector(packetBytes)"
vector 142 mobilityDrones.drones[3].wlan[0].mac packetDropDuplicateDetected:vector(packetBytes) ETV
attr interpolationmode none
attr source packetDropReasonIsDuplicateDetected(packetDropped)
attr title "packet drops: duplicate detected, vector(packetBytes)"
vector 143 mobilityDrones.drones[3].wlan[0].mac.dcf packetSentToPeerWithRetry:vector(packetBytes) ETV
attr interpolationmode none
attr source ieee80211Retry(packetSentToPeer)
attr title "packets sent: with retry, vector(packetBytes)"
vector 144 mobilityDrones.drones[0].wlan[0].mac.dcf packetReceivedFromPeerWithRetry:vector(packetBytes) ETV
attr interpolationmode none
attr source ieee80211Retry(packetReceivedFromPeer)
attr title "packets received: with retry, vector(packetBytes)"
vector 145 mobilityDrones.drones[2].wlan[0].mac packetDropIncorrectlyReceived:vector(packetBytes) ETV
attr interpolationmode none
attr source packetDropReasonIsIncorrectlyReceived(packetDropped)
attr title "packet drops: incorrectly received, vector(packetBytes)"
vector 146 mobilityDrones.drones[0].wlan[0].mac.dcf packetDrop:vector(packetBytes) ETV
attr interpolationmode none
attr source packetDropped
attr title "packet drops, vector(packetBytes)"
vector 147 mobilityDrones.drones[0].wlan[0].mac.dcf packetDropRetryLimitReached:vector(packetBytes) ETV
attr interpolationmode none
attr source packetDropReasonIsRetryLimitReached(packetDropped)
attr title "packet drops: retry limit reached, vector(packetBytes)"
vector 148 mobilityDrones.drones[0].wlan[0].mac packetDropRetryLimitReached:vector(packetBytes) ETV
attr interpolationmode none
attr source packetDropReasonIsRetryLimitReached(packetDropped)
attr title "packet drops: retry limit reached, vector(packetBytes)"
vector 149 mobilityDrones.drones[1].app[0] packetSent:vector(packetBytes) ETV
attr interpolationmode none
attr source packetSent
attr title "packets sent, vector(packetBytes)"
vector 150 mobilityDrones.drones[1].udp packetSent:vector(packetBytes) ETV
attr interpolationmode none
attr source packetSent
attr title "packets sent, vector(packetBytes)"
vector 151 mobilityDrones.drones[1].wlan[0].mac.dcf packetSentToPeerWithRetry:vector(packetBytes) ETV
attr interpolationmode none
attr source ieee80211Retry(packetSentToPeer)
attr title "packets sent: with retry, vector(packetBytes)"
vector 152 mobilityDrones.drones[1].wlan[0].mac.dcf packetDropRetryLimitReached:vector(packetBytes) ETV
attr interpolationmode none
attr source packetDropReasonIsRetryLimitReached(packetDropped)
attr title "packet drops: retry limit reached, vector(packetBytes)"
vector 153 mobilityDrones.drones[1].wlan[0].mac packetDropRetryLimitReached:vector(packetBytes) ETV
attr interpolationmode none
attr source packetDropReasonIsRetryLimitReached(packetDropped)
attr title "packet drops: retry limit reached, vector(packetBytes)"
vector 154 mobilityDrones.drones[1].ipv4.arp arpRequestSent:vector(packetBytes) ETV
attr source arpRequestSent
attr title "ARP request sent, vector(packetBytes)"
vector 155 mobilityDrones.drones[1].wlan[0].mac.dcf packetSentToPeerMulticast:vector(packetBytes) ETV
attr interpolationmode none
attr source ieee80211Multicast(packetSentToPeer)
attr title "packets sent: multicast, vector(packetBytes)"
vector 156 mobilityDrones.drones[1].wlan[0].mac.dcf packetSentToPeerBroadcast:vector(packetBytes) ETV
attr interpolationmode none
attr source ieee80211Broadcast(packetSentToPeer)
attr title "packets sent: broadcast , vector(packetBytes)"
vector 157 mobilityDrones.drones[0].udp packetReceived:vector(packetBytes) ETV
attr interpolationmode none
attr source packetReceived
attr title "packets received, vector(packetBytes)"
vector 158 mobilityDrones.drones[0].udp passedUpPk:vector(count) ETV
attr interpolationmode none
attr source packetSentToUpper
attr title "packets passed up, vector(count)"
vector 159 mobilityDrones.drones[0].app[0] packetReceived:vector(packetBytes) ETV
attr interpolationmode none
attr source packetReceived
attr title "packets received, vector(packetBytes)"
vector 160 mobilityDrones.drones[0].app[0] throughput:vector ETV
attr source throughput(packetReceived)
attr title "throughput, vector"
attr unit bps
vector 161 mobilityDrones.drones[0].app[0] rcvdPkLifetime:vector ETV
attr interpolationmode none
attr source dataAge(packetReceived)
attr title "received packet lifetime, vector"
attr unit s
vector 162 mobilityDrones.drones[1].udp passedUpPk:vector(count) ETV
attr interpolationmode none
attr source packetSentToUpper
attr title "packets passed up, vector(count)"
vector 163 mobilityDrones.drones[1].app[0] packetReceived:vector(packetBytes) ETV
attr interpolationmode none
attr source packetReceived
attr title "packets received, vector(packetBytes)"
vector 164 mobilityDrones.drones[1].app[0] throughput:vector ETV
attr source throughput(packetReceived)
attr title "throughput, vector"
attr unit bps
vector 165 mobilityDrones.drones[1].app[0] rcvdPkLifetime:vector ETV
attr interpolationmode none
attr source dataAge(packetReceived)
attr title "received packet lifetime, vector"
attr unit s
vector 166 mobilityDrones.drones[0].wlan[0].mac.dcf packetDropNotAddressedToUs:vector(packetBytes) ETV
attr interpolationmode none
attr source packetDropReasonIsNotAddressedToUs(packetDropped)
attr title "packet drops: not addressed to us, vector(packetBytes)"
vector 167 mobilityDrones.drones[0].wlan[0].mac packetDropNotAddressedToUs:vector(packetBytes) ETV
attr interpolationmode none
attr source packetDropReasonIsNotAddressedToUs(packetDropped)
attr title "packet drops: not addressed to us, vector(packetBytes)"
vector 168 mobilityDrones.drones[3].wlan[0].mac packetDropIncorrectlyReceived:vector(packetBytes) ETV
attr interpolationmode none
attr source packetDropReasonIsIncorrectlyReceived(packetDropped)
attr title "packet drops: incorrectly received, vector(packetBytes)"
vector 169 mobilityDrones.drones[2].wlan[0].mac.dcf packetReceivedFromPeerWithRetry:vector(packetBytes) ETV
attr interpolationmode none
attr source ieee80211Retry(packetReceivedFromPeer)
attr title "packets received: with retry, vector(packetBytes)"
vector 170 mobilityDrones.drones[2].wlan[0].mac.dcf packetSentToPeerWithRetry:vector(packetBytes) ETV
attr interpolationmode none
attr source ieee80211Retry(packetSentToPeer)
attr title "packets sent: with retry, vector(packetBytes)"
vector 171 mobilityDrones.drones[0].wlan[0].mac.dcf packetReceivedFromPeerMulticast:vector(packetBytes) ETV
attr interpolationmode none
attr source ieee80211Multicast(packetReceivedFromPeer)
attr title "packets received: multicast, vector(packetBytes)"
vector 172 mobilityDrones.drones[0].wlan[0].mac.dcf packetReceivedFromPeerBroadcast:vector(packetBytes) ETV
attr interpolationmode none
attr source ieee80211Broadcast(packetReceivedFromPeer)
attr title "packets received: broadcast, vector(packetBytes)"
vector 173 mobilityDrones.drones[1].wlan[0].mac.dcf packetReceivedFromPeerWithRetry:vector(packetBytes) ETV
attr interpolationmode none
attr source ieee80211Retry(packetReceivedFromPeer)
attr title "packets received: with retry, vector(packetBytes)"
vector 174 mobilityDrones.drones[0].wlan[0].mac.dcf.recipientMacDataService packetDropDuplicateDetected:vector(packetBytes) ETV
attr interpolationmode none
attr source packetDropReasonIsDuplicateDetected(packetDropped)
attr title "packet drops: duplicate detected, vector(packetBytes)"
vector 175 mobilityDrones.drones[0].wlan[0].mac packetDropDuplicateDetected:vector(packetBytes) ETV
attr interpolationmode none
attr source packetDropReasonIsDuplicateDetected(packetDropped)
attr title "packet drops: duplicate detected, vector(packetBytes)"
vector 176 mobilityDrones.drones[2].app[0] packetSent:vector(packetBytes) ETV
attr interpolationmode none
attr source packetSent
attr title "packets sent, vector(packetBytes)"
vector 177 mobilityDrones.drones[2].udp packetSent:vector(packetBytes) ETV
attr interpolationmode none
attr source packetSent
attr title "packets sent, vector(packetBytes)"
vector 178 mobilityDrones.drones[2].ipv4.arp arpRequestSent:vector(packetBytes) ETV
attr source arpRequestSent
attr title "ARP request sent, vector(packetBytes)"
vector 179 mobilityDrones.drones[2].wlan[0].mac.dcf packetSentToPeerMulticast:vector(packetBytes) ETV
attr interpolationmode none
attr source ieee80211Multicast(packetSentToPeer)
attr title "packets sent: multicast, vector(packetBytes)"
vector 180 mobilityDrones.drones[2].wlan[0].mac.dcf packetSentToPeerBroadcast:vector(packetBytes) ETV
attr interpolationmode none
attr source ieee80211Broadcast(packetSentToPeer)
attr title "packets sent: broadcast , vector(packetBytes)"
vector 181 mobilityDrones.drones[2].wlan[0].mac.dcf packetDropRetryLimitReached:vector(packetBytes) ETV
attr interpolationmode none
attr source packetDropReasonIsRetryLimitReached(packetDropped)
attr title "packet drops: retry limit reached, vector(packetBytes)"
vector 182 mobilityDrones.drones[2].wlan[0].mac packetDropRetryLimitReached:vector(packetBytes) ETV
attr interpolationmode none
attr source packetDropReasonIsRetryLimitReached(packetDropped)
attr title "packet drops: retry limit reached, vector(packetBytes)"
vector 183 mobilityDrones.drones[2].udp passedUpPk:vector(count) ETV
attr interpolationmode none
attr source packetSentToUpper
attr title "packets passed up, vector(count)"
vector 184 mobilityDrones.drones[2].app[0] packetReceived:vector(packetBytes) ETV
attr interpolationmode none
attr source packetReceived
attr title "packets received, vector(packetBytes)"
vector 185 mobilityDrones.drones[2].app[0] throughput:vector ETV
attr source throughput(packetReceived)
attr title "throughput, vector"
attr unit bps
vector 186 mobilityDrones.drones[2].app[0] rcvdPkLifetime:vector ETV
attr interpolationmode none
attr source dataAge(packetReceived)
attr title "received packet lifetime, vector"
attr unit s
vector 187 mobilityDrones.drones[3].wlan[0].mac.dcf packetDropRetryLimitReached:vector(packetBytes) ETV
attr interpolationmode none
attr source packetDropReasonIsRetryLimitReached(packetDropped)
attr title "packet drops: retry limit reached, vector(packetBytes)"
vector 188 mobilityDrones.drones[3].wlan[0].mac packetDropRetryLimitReached:vector(packetBytes) ETV
attr interpolationmode none
attr source packetDropReasonIsRetryLimitReached(packetDropped)
attr title "packet drops: retry limit reached, vector(packetBytes)"
vector 189 mobilityDrones.drones[3].app[0] packetSent:vector(packetBytes) ETV
attr interpolationmode none
attr source packetSent
attr title "packets sent, vector(packetBytes)"
vector 190 mobilityDrones.drones[3].udp packetSent:vector(packetBytes) ETV
attr interpolationmode none
attr source packetSent
attr title "packets sent, vector(packetBytes)"
vector 191 mobilityDrones.drones[3].ipv4.arp arpRequestSent:vector(packetBytes) ETV
attr source arpRequestSent
attr title "ARP request sent, vector(packetBytes)"
vector 192 mobilityDrones.drones[3].wlan[0].mac.dcf packetSentToPeerMulticast:vector(packetBytes) ETV
attr interpolationmode none
attr source ieee80211Multicast(packetSentToPeer)
attr title "packets sent: multicast, vector(packetBytes)"
vector 193 mobilityDrones.drones[3].wlan[0].mac.dcf packetSentToPeerBroadcast:vector(packetBytes) ETV
attr interpolationmode none
attr source ieee80211Broadcast(packetSentToPeer)
attr title "packets sent: broadcast , vector(packetBytes)"
vector 194 mobilityDrones.drones[0].ipv4.ip packetDropAddressResolutionFailed:vector(packetBytes) ETV
attr interpolationmode none
attr source packetDropReasonIsAddressResolutionFailed(packetDropped)
attr title "packet drop: address resolution failed, vector(packetBytes)"
vector 195 mobilityDrones.drones[3].ipv4.ip packetDropAddressResolutionFailed:vector(packetBytes) ETV
attr interpolationmode none
attr source packetDropReasonIsAddressResolutionFailed(packetDropped)
attr title "packet drop: address resolution failed, vector(packetBytes)"
vector 196 mobilityDrones.drones[1].ipv4.ip packetDropAddressResolutionFailed:vector(packetBytes) ETV
attr interpolationmode none
attr source packetDropReasonIsAddressResolutionFailed(packetDropped)
attr title "packet drop: address resolution failed, vector(packetBytes)"
vector 197 mobilityDrones.drones[3].udp passedUpPk:vector(count) ETV
attr interpolationmode none
attr source packetSentToUpper
attr title "packets passed up, vector(count)"
vector 198 mobilityDrones.drones[3].app[0] packetReceived:vector(packetBytes) ETV
attr interpolationmode none
attr source packetReceived
attr title "packets received, vector(packetBytes)"
vector 199 mobilityDrones.drones[3].app[0] throughput:vector ETV
attr source throughput(packetReceived)
attr title "throughput, vector"
attr unit bps
vector 200 mobilityDrones.drones[3].app[0] rcvdPkLifetime:vector ETV
attr interpolationmode none
attr source dataAge(packetReceived)
attr title "received packet lifetime, vector"
attr unit s
vector 201 mobilityDrones.drones[2].ipv4.ip packetDropAddressResolutionFailed:vector(packetBytes) ETV
attr interpolationmode none
attr source packetDropReasonIsAddressResolutionFailed(packetDropped)
attr title "packet drop: address resolution failed, vector(packetBytes)"
vector 202 mobilityDrones.drones[2].wlan[0].mac.dcf.recipientMacDataService packetDropDuplicateDetected:vector(packetBytes) ETV
attr interpolationmode none
attr source packetDropReasonIsDuplicateDetected(packetDropped)
attr title "packet drops: duplicate detected, vector(packetBytes)"
vector 203 mobilityDrones.drones[2].wlan[0].mac packetDropDuplicateDetected:vector(packetBytes) ETV
attr interpolationmode none
attr source packetDropReasonIsDuplicateDetected(packetDropped)
attr title "packet drops: duplicate detected, vector(packetBytes)"
vector 204 mobilityDrones.drones[1].wlan[0].mac.dcf.recipientMacDataService packetDropDuplicateDetected:vector(packetBytes) ETV
attr interpolationmode none
attr source packetDropReasonIsDuplicateDetected(packetDropped)
attr title "packet drops: duplicate detected, vector(packetBytes)"
vector 205 mobilityDrones.drones[1].wlan[0].mac packetDropDuplicateDetected:vector(packetBytes) ETV
attr interpolationmode none
attr source packetDropReasonIsDuplicateDetected(packetDropped)
attr title "packet drops: duplicate detected, vector(packetBytes)"
0	0	0	0
0	0	0	0
0	0	0	2
0	61	0.00019	3
0	70	0.00024	2
0	103	0.000810000017	3
0	112	0.000844000017	2
0	121	0.001174000017	3
0	127	0.001228000017	2
0	178	0.0018700001	3
0	187	0.0019040001	2
0	221	1	3
0	227	1.00005	2
0	262	1.000660066716	3
0	271	1.000694066716	2
0	280	1.001004066716	3
0	286	1.001058066716	2
0	337	1.00138013349	3
0	346	1.00141413349	2
0	377	2	3
0	383	2.000054	2
0	434	2.000596133427	3
0	443	2.000630133427	2
0	471	3	3
0	477	3.00005	2
0	512	3.000260200129	3
0	521	3.000294200129	2
0	530	3.000944200129	3
0	536	3.000998200129	2
0	587	3.00146040033	3
0	596	3.00149440033	2
0	627	4	3
0	633	4.000054	2
0	684	4.000276266843	3
0	693	4.000310266843	2
0	721	5	3
0	727	5.000054	2
0	778	5.000596333566	3
0	787	5.000630333566	2
0	815	6	3
0	821	6.000054	2
0	872	6.000596400278	3
0	881	6.000630400278	2
0	909	7	3
0	915	7.000054	2
0	966	7.000216466979	3
0	975	7.000250466979	2
0	1003	8	3
0	1009	8.000054	2
0	1060	8.000836533712	3
0	1069	8.000870533712	2
0	1097	9	3
0	1103	9.000054	2
0	1154	9.000216600405	3
0	1163	9.000250600405	2
0	1192	10	3
0	1198	10.000054	2
0	1250	10.000416667106	3
0	1259	10.000450667106	2
0	1287	11	3
0	1293	11.000054	2
0	1344	11.000436670425	3
0	1353	11.000470670425	2
0	1381	12	3
0	1387	12.000054	2
0	1438	12.000436680306	3
0	1447	12.000470680306	2
0	1475	13	3
0	1481	13.000054	2
0	1532	13.000376696465	3
0	1541	13.000410696465	2
0	1569	14	3
0	1575	14.000054	2
0	1626	14.000316718479	3
0	1635	14.000350718479	2
0	1663	15	3
0	1669	15.000054	2
0	1720	15.000256745827	3
0	1729	15.000290745827	2
0	1757	16	3
0	1763	16.000054	2
0	1814	16.000836777962	3
0	1823	16.000870777962	2
0	1851	17	3
0	1857	17.000054	2
0	1889	17.000208814283	3
0	1895	17.000262814283	2
0	1959	17.002117628608	3
0	1968	17.002151628608	2
0	1999	18	3
0	2005	18.000054	2
0	2013	18.000348	3
0	2019	18.000402	2
0	2027	18.002216	3
0	2033	18.00227	2
0	2041	18.003224	3
0	2047	18.003278	2
0	2057	18.010572	3
0	2063	18.010626	2
0	2071	18.01094	3
0	2077	18.010994	2
0	2089	18.026488	3
0	2095	18.026542	2
0	2119	19	3
0	2125	19.000054	2
0	2133	19.001228	3
0	2139	19.001282	2
0	2147	19.001376	3
0	2153	19.00143	2
0	2161	19.002284	3
0	2167	19.002338	2
0	2175	19.007932	3
0	2181	19.007986	2
0	2192	19.01156	3
0	2198	19.011614	2
0	2209	19.022788	3
0	2215	19.022842	2
0	2239	20	3
0	2245	20.000054	2
0	2253	20.009908	3
0	2259	20.009962	2
0	2269	20.021836	3
0	2275	20.02189	2
0	2283	20.027704	3
0	2289	20.027758	2
0	2298	20.033452	3
0	2304	20.033506	2
0	2314	20.04634	3
0	2320	20.046394	2
0	2329	20.061888	3
0	2335	20.061942	2
0	2359	21	3
0	2365	21.000054	2
0	2374	21.017648	3
0	2380	21.017702	2
0	2388	21.023176	3
0	2394	21.02323	2
0	2404	21.040924	3
0	2410	21.040978	2
0	2418	21.046992	3
0	2424	21.047046	2
0	2433	21.0537	3
0	2439	21.053754	2
0	2447	21.054228	3
0	2453	21.054282	2
0	2479	22	3
0	2485	22.000054	2
0	2493	22.009148	3
0	2499	22.009202	2
0	2508	22.014256	3
0	2514	22.01431	2
0	2522	22.018004	3
0	2528	22.018058	2
0	2538	22.024612	3
0	2544	22.024666	2
0	2554	22.04484	3
0	2560	22.044894	2
0	2569	22.061568	3
0	2575	22.061622	2
0	2599	23	3
0	2605	23.000054	2
0	2613	23.005348	3
0	2619	23.005402	2
0	2629	23.024756	3
0	2635	23.02481	2
0	2644	23.039884	3
0	2650	23.039938	2
0	2658	23.042812	3
0	2664	23.042866	2
0	2674	23.06336	3
0	2680	23.063414	2
0	2689	23.075468	3
0	2695	23.075522	2
0	2719	24	3
0	2725	24.000054	2
0	2734	24.012568	3
0	2740	24.012622	2
0	2749	24.029576	3
0	2755	24.02963	2
0	2764	24.043644	3
0	2770	24.043698	2
0	2779	24.054352	3
0	2785	24.054406	2
0	2793	24.05754	3
0	2799	24.057594	2
0	2809	24.076188	3
0	2815	24.076242	2
0	2839	25	3
0	2845	25.000054	2
0	2853	25.000648	3
0	2859	25.000702	2
0	2868	25.010076	3
0	2874	25.01013	2
0	2884	25.029344	3
0	2890	25.029398	2
0	2899	25.047272	3
0	2905	25.047326	2
0	2914	25.06514	3
0	2920	25.065194	2
0	2928	25.067628	3
0	2934	25.067682	2
0	2959	26	3
0	2965	26.000054	2
0	2974	26.013608	3
0	2980	26.013662	2
0	2989	26.031196	3
0	2995	26.03125	2
0	3004	26.049904	3
0	3010	26.049958	2
0	3018	26.054612	3
0	3024	26.054666	2
0	3034	26.0649	3
0	3040	26.064954	2
0	3049	26.080308	3
0	3055	26.080362	2
0	3079	27	3
0	3085	27.000054	2
0	3093	27.009528	3
0	3099	27.009582	2
0	3108	27.015416	3
0	3114	27.01547	2
0	3124	27.026064	3
0	3130	27.026118	2
0	3139	27.042992	3
0	3145	27.043046	2
0	3154	27.05706	3
0	3160	27.057114	2
0	3168	27.060248	3
0	3174	27.060302	2
0	3200	28	3
0	3206	28.000054	2
0	3215	28.011188	3
0	3221	28.011242	2
0	3229	28.020096	3
0	3235	28.02015	2
0	3244	28.024384	3
0	3250	28.024438	2
0	3260	28.040112	3
0	3266	28.040166	2
0	3274	28.04358	3
0	3280	28.043634	2
0	3288	28.045948	3
0	3294	28.046002	2
0	3320	29	3
0	3326	29.000054	2
0	3334	29.002728	3
0	3340	29.002782	2
0	3350	29.017576	3
0	3356	29.01763	2
0	3365	29.035444	3
0	3371	29.035498	2
0	3380	29.051832	3
0	3386	29.051886	2
0	3394	29.0563	3
0	3400	29.056354	2
0	3409	29.064068	3
0	3415	29.064122	2
0	3440	30	3
0	3446	30.000054	2
0	3455	30.019708	3
0	3461	30.019762	2
0	3470	30.039996	3
0	3476	30.04005	2
0	3485	30.055564	3
0	3491	30.055618	2
0	3499	30.060392	3
0	3505	30.060446	2
0	3515	30.07486	3
0	3521	30.074914	2
0	3530	30.094968	3
0	3536	30.095022	2
0	3560	31	3
0	3566	31.000054	2
0	3575	31.014168	3
0	3581	31.014222	2
0	3590	31.028496	3
0	3596	31.02855	2
0	3605	31.043184	3
0	3611	31.043238	2
0	3620	31.054432	3
0	3626	31.054486	2
0	3634	31.05522	3
0	3640	31.055274	2
0	3648	31.055588	3
0	3654	31.055642	2
0	3680	32	3
0	3686	32.000054	2
0	3694	32.002908	3
0	3700	32.002962	2
0	3710	32.016936	3
0	3716	32.01699	2
0	3725	32.037144	3
0	3731	32.037198	2
0	3739	32.045712	3
0	3745	32.045766	2
0	3755	32.0586	3
0	3761	32.058654	2
0	3770	32.072108	3
0	3776	32.072162	2
0	3800	33	3
0	3806	33.000054	2
0	3815	33.010928	3
0	3821	33.010982	2
0	3830	33.030656	3
0	3836	33.03071	2
0	3844	33.035144	3
0	3850	33.035198	2
0	3860	33.048552	3
0	3866	33.048606	2
0	3875	33.06512	3
0	3881	33.065174	2
0	3889	33.071408	3
0	3895	33.071462	2
0	3920	34	3
0	3926	34.000054	2
0	3935	34.019128	3
0	3941	34.019182	2
0	3950	34.030096	3
0	3956	34.03015	2
0	3965	34.041824	3
0	3971	34.041878	2
0	3980	34.052912	3
0	3986	34.052966	2
0	3995	34.0692	3
0	4001	34.069254	2
0	4009	34.077208	3
0	4015	34.077262	2
0	4040	35	3
0	4046	35.000054	2
0	4055	35.018528	3
0	4061	35.018582	2
0	4070	35.036656	3
0	4076	35.03671	2
0	4085	35.053084	3
0	4091	35.053138	2
0	4100	35.067832	3
0	4106	35.067886	2
0	4115	35.0869	3
0	4121	35.086954	2
0	4131	35.104568	3
0	4137	35.104622	2
0	4160	36	3
0	4166	36.000054	2
0	4175	36.010928	3
0	4181	36.010982	2
0	4189	36.019656	3
0	4195	36.01971	2
0	4204	36.023784	3
0	4210	36.023838	2
0	4219	36.032392	3
0	4225	36.032446	2
0	4233	36.03376	3
0	4239	36.033814	2
0	4248	36.040728	3
0	4254	36.040782	2
0	4281	37	3
0	4287	37.000054	2
0	4296	37.016188	3
0	4302	37.016242	2
0	4311	37.034936	3
0	4317	37.03499	2
0	4325	37.036844	3
0	4331	37.036898	2
0	4339	37.037652	3
0	4345	37.037706	2
0	4356	37.0507	3
0	4362	37.050754	2
0	4370	37.055488	3
0	4376	37.055542	2
0	4401	38	3
0	4407	38.000054	2
0	4415	38.009328	3
0	4421	38.009382	2
0	4430	38.015276	3
0	4436	38.01533	2
0	4444	38.019364	3
0	4451	38.019418	2
0	4461	38.037392	3
0	4467	38.037446	2
0	4476	38.05652	3
0	4482	38.056574	2
0	4490	38.061748	3
0	4496	38.061802	2
0	4521	39	3
0	4527	39.000054	2
0	4535	39.002868	3
0	4541	39.002922	2
0	4549	39.006796	3
0	4555	39.00685	2
0	4563	39.009524	3
0	4569	39.009578	2
0	4579	39.013852	3
0	4585	39.013906	2
0	4595	39.02136	3
0	4601	39.021414	2
0	4610	39.027328	3
0	4616	39.027382	2
0	4780	40	3
0	4787	40.000054	2
0	4795	40.002428	3
0	4801	40.002482	2
0	4811	40.018536	3
0	4817	40.01859	2
0	4825	40.019264	3
0	4831	40.019318	2
0	4841	40.034472	3
0	4847	40.034526	2
0	4855	40.0404	3
0	4861	40.040454	2
0	4869	40.043468	3
0	4875	40.043522	2
0	5035	41	3
0	5041	41.000054	2
0	5050	41.018308	3
0	5056	41.018362	2
0	5065	41.029576	3
0	5071	41.02963	2
0	5080	41.047424	3
0	5086	41.047478	2
0	5095	41.062872	3
0	5101	41.062926	2
0	5109	41.06946	3
0	5115	41.069514	2
0	5125	41.082068	3
0	5131	41.082122	2
0	5233	42	3
0	5239	42.000054	2
0	5248	42.013288	3
0	5254	42.013342	2
0	5263	42.027636	3
0	5269	42.02769	2
0	5278	42.047124	3
0	5284	42.047178	2
0	5292	42.052752	3
0	5298	42.052806	2
0	5308	42.0701	3
0	5314	42.070154	2
0	5322	42.071108	3
0	5328	42.071162	2
0	5431	43	3
0	5437	43.000054	2
0	5445	43.004168	3
0	5451	43.004222	2
0	5461	43.021456	3
0	5467	43.02151	2
0	5476	43.031564	3
0	5482	43.031618	2
0	5490	43.041312	3
0	5496	43.041366	2
0	5506	43.0612	3
0	5512	43.061254	2
0	5520	43.067928	3
0	5526	43.067982	2
0	5689	44	3
0	5695	44.000054	2
0	5703	44.003428	3
0	5709	44.003482	2
0	5719	44.015696	3
0	5725	44.01575	2
0	5734	44.026564	3
0	5740	44.026618	2
0	5749	44.039272	3
0	5755	44.039326	2
0	5763	44.04324	3
0	5769	44.043294	2
0	5777	44.047288	3
0	5783	44.047342	2
0	5947	45	3
0	5953	45.000054	2
0	5961	45.001888	3
0	5967	45.001942	2
0	5975	45.002296	3
0	5981	45.00235	2
0	5989	45.008724	3
0	5995	45.008778	2
0	6007	45.020732	3
0	6013	45.020786	2
0	6021	45.02328	3
0	6027	45.023334	2
0	6037	45.041108	3
0	6043	45.041162	2
0	6205	46	3
0	6211	46.000054	2
0	6221	46.019708	3
0	6227	46.019762	2
0	6237	46.030536	3
0	6243	46.03059	2
0	6253	46.048484	3
0	6259	46.048538	2
0	6269	46.061572	3
0	6275	46.061626	2
0	6285	46.07318	3
0	6291	46.073234	2
0	6301	46.083668	3
0	6307	46.083722	2
0	6362	46.270197153857	3
0	6371	46.270231153857	2
0	6393	47	3
0	6399	47.000054	2
0	6452	47.25106912451	3
0	6461	47.25110312451	2
0	6483	48	3
0	6489	48.000054	2
0	6500	48.000828	3
0	6506	48.000882	2
0	6516	48.001576	3
0	6522	48.00163	2
0	6532	48.002884	3
0	6538	48.002938	2
0	6548	48.009252	3
0	6554	48.009306	2
0	6569	48.0298	3
0	6575	48.029854	2
0	6586	48.048768	3
0	6592	48.048822	2
0	6699	49	3
0	6705	49.000054	2
0	6715	49.000328	3
0	6721	49.000382	2
0	6731	49.000736	3
0	6737	49.00079	2
0	6747	49.002284	3
0	6753	49.002338	2
0	6763	49.005772	3
0	6769	49.005826	2
0	6779	49.00618	3
0	6785	49.006234	2
0	6801	49.024388	3
0	6807	49.024442	2
0	6843	49.251069063605	3
0	6852	49.251103063605	2
0	6874	50	3
0	6881	50.000054	2
0	6891	50.009508	3
0	6898	50.009562	2
0	6910	50.028896	3
0	6916	50.02895	2
0	6926	50.037044	3
0	6932	50.037098	2
0	6944	50.054832	3
0	6950	50.054886	2
0	6961	50.06824	3
0	6967	50.068294	2
0	6977	50.068468	3
0	6983	50.068522	2
0	7020	50.251069031717	3
0	7027	50.251103031717	2
0	7051	51	3
0	7057	51.000054	2
0	7181	52	3
0	7187	52.000054	2
0	7199	52.000148	3
0	7205	52.000202	2
0	7217	52.001016	3
0	7223	52.00107	2
0	7311	52.003336832039	3
0	7320	52.003370832039	2
0	7435	53	3
0	7441	53.000054	2
0	7497	53.251068892755	3
0	7504	53.251102892755	2
0	7530	54	3
0	7536	54.000054	2
0	7729	55	3
0	7735	55.000054	2
0	7792	55.251068803825	3
0	7799	55.251102803825	2
0	7825	56	3
0	7831	56.000054	2
0	7962	57	3
0	7968	57.000054	2
0	8019	57.000676768526	3
0	8027	57.000710768526	2
0	8331	58	3
0	8337	58.000054	2
0	8403	58.001848772654	3
0	8411	58.001882772654	2
0	8448	58.251068842123	3
0	8455	58.251102842123	2
0	8479	59	3
0	8485	59.000054	2
0	8534	59.000816782463	3
0	8542	59.000850782463	2
0	8694	60	3
0	8700	60.000054	2
0	8748	60.000296797746	3
0	8756	60.000330797746	2
0	8908	61	3
0	8914	61.000054	2
0	8926	61.000348	3
0	8932	61.000402	2
0	8944	61.001036	3
0	8950	61.00109	2
0	8998	61.001272818228	3
0	9006	61.001306818228	2
0	9029	61.001725636463	3
0	9037	61.001759636463	2
0	9193	62	3
0	9199	62.000054	2
0	9209	62.000708	3
0	9215	62.000762	2
0	9225	62.002876	3
0	9231	62.00293	2
0	9241	62.006964	3
0	9247	62.007018	2
0	9260	62.013692	3
0	9266	62.013746	2
0	9278	62.02772	3
0	9284	62.027774	2
0	9295	62.046208	3
0	9301	62.046262	2
0	9451	63	3
0	9457	63.000054	2
0	9467	63.000248	3
0	9473	63.000302	2
0	9483	63.000636	3
0	9489	63.00069	2
0	9499	63.002264	3
0	9505	63.002318	2
0	9518	63.011172	3
0	9524	63.011226	2
0	9536	63.02792	3
0	9542	63.027974	2
0	9552	63.032048	3
0	9558	63.032102	2
0	9709	64	3
0	9715	64.000054	2
0	9726	64.014328	3
0	9732	64.014382	2
0	9742	64.021476	3
0	9748	64.02153	2
0	9760	64.034484	3
0	9766	64.034538	2
0	9776	64.043112	3
0	9782	64.043166	2
0	9794	64.05466	3
0	9800	64.054714	2
0	9810	64.063588	3
0	9816	64.063642	2
0	9967	65	3
0	9973	65.000054	2
0	10038	65.263197166754	3
0	10045	65.263231166754	2
0	10067	66	3
0	10073	66.000054	2
0	10081	66.001008	3
0	10087	66.001062	2
0	10095	66.002196	3
0	10101	66.00225	2
0	10109	66.007004	3
0	10115	66.007058	2
0	10123	66.009352	3
0	10129	66.009406	2
0	10142	66.02102	3
0	10148	66.021074	2
0	10156	66.027808	3
0	10162	66.027862	2
0	10298	67	3
0	10304	67.000054	2
0	10312	67.001048	3
0	10318	67.001102	2
0	10326	67.002156	3
0	10332	67.00221	2
0	10340	67.004484	3
0	10346	67.004538	2
0	10357	67.013952	3
0	10363	67.014006	2
0	10372	67.01768	3
0	10378	67.017734	2
0	10388	67.029048	3
0	10394	67.029102	2
0	10529	68	3
0	10535	68.000054	2
0	10544	68.010788	3
0	10550	68.010842	2
0	10558	68.015096	3
0	10564	68.01515	2
0	10572	68.016084	3
0	10578	68.016138	2
0	10589	68.026192	3
0	10595	68.026246	2
0	10603	68.0269	3
0	10609	68.026954	2
0	10617	68.035248	3
0	10623	68.035302	2
0	10759	69	3
0	10765	69.000054	2
0	10773	69.007748	3
0	10779	69.007802	2
0	10789	69.025596	3
0	10795	69.02565	2
0	10804	69.037984	3
0	10810	69.038038	2
0	10818	69.039932	3
0	10824	69.039986	2
0	10832	69.04144	3
0	10838	69.041494	2
0	10849	69.053928	3
0	10855	69.053982	2
0	10989	70	3
0	10995	70.000054	2
0	11003	70.002128	3
0	11009	70.002182	2
0	11017	70.006616	3
0	11023	70.00667	2
0	11033	70.012884	3
0	11039	70.012938	2
0	11048	70.019912	3
0	11054	70.019966	2
0	11063	70.02426	3
0	11069	70.024314	2
0	11079	70.040168	3
0	11085	70.040222	2
0	11219	71	3
0	11225	71.000054	2
0	11234	71.013308	3
0	11240	71.013362	2
0	11249	71.027596	3
0	11255	71.02765	2
0	11263	71.031184	3
0	11269	71.031238	2
0	11279	71.045792	3
0	11285	71.045846	2
0	11293	71.05196	3
0	11299	71.052014	2
0	11309	71.068548	3
0	11315	71.068602	2
0	11449	72	3
0	11455	72.000054	2
0	11463	72.004988	3
0	11469	72.005042	2
0	11479	72.022536	3
0	11485	72.02259	2
0	11493	72.023084	3
0	11499	72.023138	2
0	11509	72.036892	3
0	11515	72.036946	2
0	11524	72.04964	3
0	11530	72.049694	2
0	11538	72.052348	3
0	11544	72.052402	2
0	11679	73	3
0	11685	73.000054	2
0	11694	73.018308	3
0	11700	73.018362	2
0	11709	73.036476	3
0	11715	73.03653	2
0	11723	73.037384	3
0	11729	73.037438	2
0	11739	73.052912	3
0	11745	73.052966	2
0	11753	73.05838	3
0	11759	73.058434	2
0	11767	73.058648	3
0	11773	73.058702	2
0	11909	74	3
0	11915	74.000054	2
0	11924	74.016528	3
0	11930	74.016582	2
0	11938	74.021836	3
0	11944	74.02189	2
0	11953	74.028624	3
0	11959	74.028678	2
0	11969	74.042152	3
0	11975	74.042206	2
0	11984	74.05272	3
0	11990	74.052774	2
0	11999	74.065408	3
0	12005	74.065462	2
0	12139	75	3
0	12145	75.000054	2
0	12154	75.011328	3
0	12160	75.011382	2
0	12169	75.023236	3
0	12175	75.02329	2
0	12184	75.036604	3
0	12190	75.036658	2
0	12198	75.039152	3
0	12204	75.039206	2
0	12214	75.05502	3
0	12220	75.055074	2
0	12228	75.062068	3
0	12234	75.062122	2
0	12369	76	3
0	12375	76.000054	2
0	12384	76.018588	3
0	12390	76.018642	2
0	12398	76.021896	3
0	12404	76.02195	2
0	12413	76.029824	3
0	12419	76.029878	2
0	12428	76.032832	3
0	12434	76.032886	2
0	12444	76.05216	3
0	12450	76.052214	2
0	12458	76.062008	3
0	12464	76.062062	2
0	12599	77	3
0	12606	77.000054	2
0	12614	77.008068	3
0	12620	77.008122	2
0	12630	77.020316	3
0	12636	77.02037	2
0	12645	77.037104	3
0	12651	77.037158	2
0	12659	77.045512	3
0	12665	77.045566	2
0	12674	77.05258	3
0	12680	77.052634	2
0	12690	77.072708	3
0	12696	77.072762	2
0	12830	78	3
0	12836	78.000054	2
0	12844	78.003228	3
0	12850	78.003282	2
0	12860	78.018436	3
0	12866	78.01849	2
0	12874	78.020244	3
0	12880	78.020298	2
0	12890	78.038552	3
0	12896	78.038606	2
0	12905	78.05866	3
0	12911	78.058714	2
0	12919	78.061508	3
0	12925	78.061562	2
0	13060	79	3
0	13066	79.000054	2
0	13074	79.003028	3
0	13080	79.003082	2
0	13090	79.020776	3
0	13096	79.02083	2
0	13104	79.030064	3
0	13110	79.030118	2
0	13120	79.042132	3
0	13126	79.042186	2
0	13134	79.0446	3
0	13140	79.044654	2
0	13150	79.059568	3
0	13156	79.059622	2
0	13290	80	3
0	13297	80.000054	2
0	13305	80.001728	3
0	13311	80.001782	2
0	13321	80.016716	3
0	13327	80.01677	2
0	13335	80.020984	3
0	13341	80.021038	2
0	13350	80.029472	3
0	13356	80.029526	2
0	13366	80.04762	3
0	13372	80.047674	2
0	13381	80.066008	3
0	13387	80.066062	2
0	13644	81	3
0	13650	81.000054	2
0	13659	81.019808	3
0	13665	81.019862	2
0	13674	81.036876	3
0	13680	81.03693	2
0	13689	81.057004	3
0	13695	81.057058	2
0	13704	81.073112	3
0	13710	81.073166	2
0	13718	81.07506	3
0	13724	81.075114	2
0	13732	81.081008	3
0	13738	81.081062	2
0	13998	82	3
0	14004	82.000054	2
0	14012	82.007748	3
0	14018	82.007802	2
0	14026	82.009896	3
0	14032	82.00995	2
0	14041	82.017744	3
0	14047	82.017798	2
0	14058	82.033192	3
0	14064	82.033246	2
0	14072	82.03648	3
0	14078	82.036534	2
0	14088	82.054648	3
0	14094	82.054702	2
0	14352	83	3
0	14358	83.000054	2
0	14368	83.012248	3
0	14374	83.012302	2
0	14383	83.026016	3
0	14389	83.02607	2
0	14398	83.037204	3
0	14404	83.037258	2
0	14412	83.041112	3
0	14418	83.041166	2
0	14426	83.04544	3
0	14432	83.045494	2
0	14443	83.059408	3
0	14449	83.059462	2
0	14707	84	3
0	14713	84.000054	2
0	14721	84.004148	3
0	14727	84.004202	2
0	14736	84.011976	3
0	14742	84.01203	2
0	14750	84.013864	3
0	14756	84.013918	2
0	14767	84.030112	3
0	14773	84.030166	2
0	14781	84.0376	3
0	14787	84.037654	2
0	14796	84.046688	3
0	14802	84.046742	2
0	15061	85	3
0	15067	85.000054	2
0	15076	85.018288	3
0	15082	85.018342	2
0	15091	85.028896	3
0	15097	85.02895	2
0	15106	85.047624	3
0	15112	85.047678	2
0	15121	85.065832	3
0	15127	85.065886	2
0	15135	85.06836	3
0	15141	85.068414	2
0	15149	85.074148	3
0	15155	85.074202	2
0	15415	86	3
0	15421	86.000054	2
0	15430	86.012728	3
0	15436	86.012782	2
0	15445	86.024296	3
0	15451	86.02435	2
0	15460	86.037964	3
0	15466	86.038018	2
0	15475	86.056132	3
0	15481	86.056186	2
0	15489	86.0615	3
0	15495	86.061554	2
0	15503	86.062408	3
0	15509	86.062462	2
0	15712	87	3
0	15718	87.000054	2
0	15727	87.018468	3
0	15733	87.018522	2
0	15742	87.032256	3
0	15748	87.03231	2
0	15757	87.050204	3
0	15763	87.050258	2
0	15771	87.059172	3
0	15777	87.059226	2
0	15786	87.06222	3
0	15792	87.062274	2
0	15802	87.074628	3
0	15808	87.074682	2
0	16008	88	3
0	16014	88.000054	2
0	16023	88.012168	3
0	16029	88.012222	2
0	16038	88.029436	3
0	16044	88.02949	2
0	16052	88.039444	3
0	16059	88.039498	2
0	16068	88.050592	3
0	16074	88.050646	2
0	16082	88.05176	3
0	16088	88.051814	2
0	16096	88.052228	3
0	16102	88.052282	2
0	16328	89	3
0	16334	89.000054	2
0	16342	89.006368	3
0	16348	89.006422	2
0	16358	89.018516	3
0	16364	89.01857	2
0	16373	89.028804	3
0	16379	89.028858	2
0	16387	89.033992	3
0	16393	89.034046	2
0	16403	89.04422	3
0	16409	89.044274	2
0	16418	89.061088	3
0	16424	89.061142	2
0	16561	90	3
0	16568	90.000054	2
0	16578	90.015728	3
0	16584	90.015782	2
0	16593	90.035256	3
0	16599	90.03531	2
0	16608	90.045864	3
0	16614	90.045918	2
0	16623	90.061692	3
0	16629	90.061746	2
0	16637	90.06304	3
0	16643	90.063094	2
0	16653	90.075888	3
0	16659	90.075942	2
0	16760	91	3
0	16766	91.000054	2
0	16775	91.019088	3
0	16781	91.019142	2
0	16790	91.036216	3
0	16796	91.03627	2
0	16804	91.045144	3
0	16810	91.045198	2
0	16818	91.045592	3
0	16824	91.045646	2
0	16833	91.04836	3
0	16839	91.048414	2
0	16847	91.050628	3
0	16853	91.050682	2
0	17142	92	3
0	17148	92.000054	2
0	17157	92.016308	3
0	17163	92.016362	2
0	17171	92.023016	3
0	17177	92.02307	2
0	17186	92.027264	3
0	17192	92.027318	2
0	17200	92.029532	3
0	17206	92.029586	2
0	17217	92.04158	3
0	17223	92.041634	2
0	17232	92.056808	3
0	17238	92.056862	2
0	17426	93	3
0	17432	93.000054	2
0	17441	93.017108	3
0	17447	93.017162	2
0	17455	93.018656	3
0	17461	93.01871	2
0	17469	93.019224	3
0	17475	93.019278	2
0	17486	93.034052	3
0	17492	93.034106	2
0	17501	93.04834	3
0	17507	93.048394	2
0	17515	93.055208	3
0	17521	93.055262	2
0	17820	94	3
0	17826	94.000054	2
0	17835	94.020568	3
0	17841	94.020622	2
0	17850	94.032696	3
0	17856	94.03275	2
0	17865	94.052264	3
0	17871	94.052318	2
0	17880	94.064192	3
0	17886	94.064246	2
0	17895	94.07454	3
0	17901	94.074594	2
0	17909	94.082948	3
0	17915	94.083002	2
0	18156	95	3
0	18162	95.000054	2
0	18171	95.013708	3
0	18177	95.013762	2
0	18186	95.034136	3
0	18192	95.03419	2
0	18201	95.047504	3
0	18207	95.047558	2
0	18216	95.063692	3
0	18222	95.063746	2
0	18230	95.0713	3
0	18236	95.071354	2
0	18245	95.074648	3
0	18251	95.074702	2
0	18430	96	3
0	18436	96.000054	2
0	18444	96.003308	3
0	18450	96.003362	2
0	18458	96.007516	3
0	18464	96.00757	2
0	18474	96.016664	3
0	18480	96.016718	2
0	18489	96.026352	3
0	18495	96.026406	2
0	18504	96.03282	3
0	18510	96.032874	2
0	18520	96.045908	3
0	18526	96.045962	2
0	18727	97	3
0	18733	97.000054	2
0	18741	97.009248	3
0	18747	97.009302	2
0	18756	97.018676	3
0	18762	97.01873	2
0	18771	97.023344	3
0	18777	97.023398	2
0	18787	97.036372	3
0	18793	97.036426	2
0	18801	97.04542	3
0	18807	97.045474	2
0	18817	97.062728	3
0	18823	97.062782	2
0	19113	98	3
0	19119	98.000054	2
0	19128	98.011568	3
0	19134	98.011622	2
0	19142	98.016656	3
0	19148	98.01671	2
0	19158	98.036884	3
0	19164	98.036938	2
0	19172	98.037172	3
0	19178	98.037226	2
0	19188	98.05548	3
0	19194	98.055534	2
0	19202	98.061388	3
0	19208	98.061442	2
0	19495	99	3
0	19501	99.000054	2
0	19509	99.006868	3
0	19515	99.006922	2
0	19524	99.016336	3
0	19530	99.01639	2
0	19539	99.019784	3
0	19545	99.019838	2
0	19555	99.034612	3
0	19561	99.034666	2
0	19569	99.04222	3
0	19575	99.042274	2
0	19584	99.052248	3
0	19591	99.052302	2
0	19876	100	3
0	19882	100.000054	2
0	19891	100.019088	3
0	19897	100.019142	2
0	19905	100.020436	3
0	19911	100.02049	2
0	19921	100.040904	3
0	19927	100.040958	2
0	19935	100.047792	3
0	19941	100.047846	2
0	19951	100.06464	3
0	19957	100.064694	2
0	19966	100.080728	3
0	19972	100.080782	2
0	20159	101	3
0	20165	101.000054	2
0	20174	101.018648	3
0	20180	101.018702	2
0	20189	101.037936	3
0	20195	101.03799	2
0	20204	101.049484	3
0	20210	101.049538	2
0	20219	101.065472	3
0	20225	101.065526	2
0	20233	101.0679	3
0	20239	101.067954	2
0	20247	101.073488	3
0	20253	101.073542	2
0	20452	102	3
0	20458	102.000054	2
0	20466	102.002948	3
0	20472	102.003002	2
0	20480	102.007916	3
0	20486	102.00797	2
0	20497	102.027264	3
0	20503	102.027318	2
0	20511	102.032552	3
0	20517	102.032606	2
0	20526	102.0411	3
0	20532	102.041154	2
0	20542	102.056808	3
0	20548	102.056862	2
0	20958	103	3
0	20964	103.000054	2
0	20973	103.010988	3
0	20979	103.011042	2
0	20988	103.026636	3
0	20994	103.02669	2
0	21003	103.046464	3
0	21009	103.046518	2
0	21018	103.058612	3
0	21024	103.058666	2
0	21032	103.06354	3
0	21038	103.063594	2
0	21048	103.081908	3
0	21054	103.081962	2
0	21326	104	3
0	21332	104.000054	2
0	21340	104.002528	3
0	21346	104.002582	2
0	21356	104.014016	3
0	21362	104.01407	2
0	21370	104.021244	3
0	21376	104.021298	2
0	21385	104.029612	3
0	21391	104.029666	2
0	21400	104.03578	3
0	21406	104.035834	2
0	21416	104.055808	3
0	21422	104.055862	2
0	21607	105	3
0	21613	105.000054	2
0	21622	105.018728	3
0	21628	105.018782	2
0	21636	105.026356	3
0	21642	105.02641	2
0	21651	105.036164	3
0	21657	105.036218	2
0	21667	105.047512	3
0	21673	105.047566	2
0	21681	105.04964	3
0	21687	105.049694	2
0	21697	105.069488	3
0	21703	105.069542	2
0	21874	106	3
0	21880	106.000054	2
0	21889	106.015888	3
0	21895	106.015942	2
0	21903	106.023116	3
0	21909	106.02317	2
0	21918	106.029284	3
0	21924	106.029338	2
0	21932	106.031432	3
0	21938	106.031486	2
0	21947	106.0383	3
0	21953	106.038354	2
0	21962	106.040688	3
0	21968	106.040742	2
0	22215	107	3
0	22221	107.000054	2
0	22230	107.020568	3
0	22236	107.020622	2
0	22244	107.029816	3
0	22250	107.02987	2
0	22259	107.032124	3
0	22265	107.032178	2
0	22273	107.036332	3
0	22279	107.036386	2
0	22288	107.04134	3
0	22294	107.041394	2
0	22305	107.057408	3
0	22311	107.057462	2
0	22556	108	3
0	22562	108.000054	2
0	22570	108.008528	3
0	22576	108.008582	2
0	22586	108.023416	3
0	22592	108.02347	2
0	22600	108.029644	3
0	22606	108.029698	2
0	22616	108.048692	3
0	22622	108.048746	2
0	22631	108.0658	3
0	22637	108.065854	2
0	22645	108.069628	3
0	22651	108.069682	2
0	22896	109	3
0	22902	109.000054	2
0	22911	109.011608	3
0	22917	109.011662	2
0	22925	109.015156	3
0	22931	109.01521	2
0	23003	109.030484	3
0	23009	109.030538	2
0	23031	109.033472	3
0	23037	109.033526	2
0	23052	109.0502	3
0	23058	109.050254	2
0	23094	109.053968	3
0	23100	109.054022	2
0	23347	110	3
0	23354	110.000054	2
0	23362	110.008788	3
0	23368	110.008842	2
0	23378	110.021576	3
0	23384	110.02163	2
0	23411	110.029344	3
0	23417	110.029398	2
0	23442	110.047552	3
0	23448	110.047606	2
0	23456	110.05056	3
0	23462	110.050614	2
0	23485	110.063328	3
0	23493	110.063382	2
0	23798	111	3
0	23804	111.000054	2
0	23814	111.011828	3
0	23820	111.011882	2
0	23849	111.0189768317	3
0	23855	111.0190308317	2
0	23885	111.0264048317	3
0	23891	111.0264588317	2
0	23948	111.038869662107	3
0	23954	111.038923662107	2
0	24012	111.042460491888	3
0	24019	111.042494491888	2
0	24026	111.043164491888	3
0	24032	111.043218491888	2
0	24063	111.059012491888	3
0	24069	111.059066491888	2
0	24092	111.065980491888	3
0	24098	111.066034491888	2
0	24107	111.067988491888	3
0	24113	111.068042491888	2
0	24124	111.070536491888	3
0	24130	111.070590491888	2
0	24154	111.074884491888	3
0	24160	111.074938491888	2
0	24171	111.078572491888	3
0	24177	111.078626491888	2
0	24291	111.255433165679	3
0	24298	111.255467165679	2
0	24433	112	3
0	24439	112.000054	2
0	24447	112.000208	3
0	24453	112.000262	2
0	24461	112.000716	3
0	24467	112.00077	2
0	24475	112.004964	3
0	24481	112.005018	2
0	24489	112.006132	3
0	24495	112.006186	2
0	24508	112.0175	3
0	24514	112.017554	2
0	24543	112.028508	3
0	24549	112.028562	2
0	24916	113	3
0	24922	113.000054	2
0	24930	113.000648	3
0	24936	113.000702	2
0	24944	113.002296	3
0	24950	113.00235	2
0	24958	113.006904	3
0	24964	113.006958	2
0	24974	113.011432	3
0	24980	113.011486	2
0	24991	113.02226	3
0	24997	113.022314	2
0	25005	113.024608	3
0	25011	113.024662	2
0	25390	114	3
0	25396	114.000054	2
0	25405	114.013148	3
0	25411	114.013202	2
0	25455	114.027776	3
0	25461	114.02783	2
0	25471	114.037564	3
0	25477	114.037618	2
0	25486	114.041572	3
0	25492	114.041626	2
0	25502	114.05292	3
0	25508	114.052974	2
0	25516	114.057348	3
0	25522	114.057402	2
0	25781	115	3
0	25787	115.000054	2
0	25795	115.001728	3
0	25801	115.001782	2
0	25809	115.004136	3
0	25815	115.00419	2
0	25823	115.007384	3
0	25829	115.007438	2
0	25841	115.024592	3
0	25847	115.024646	2
0	25891	115.035	3
0	25897	115.035054	2
0	25907	115.036428	3
0	25913	115.036482	2
0	26173	116	3
0	26179	116.000054	2
0	26187	116.007988	3
0	26193	116.008042	2
0	26203	116.024736	3
0	26209	116.02479	2
0	26255	116.042084	3
0	26261	116.042138	2
0	26269	116.044132	3
0	26275	116.044186	2
0	26283	116.04644	3
0	26289	116.046494	2
0	26300	116.064728	3
0	26306	116.064782	2
0	26564	117	3
0	26571	117.000054	2
0	26579	117.005368	3
0	26585	117.005422	2
0	26595	117.016536	3
0	26601	117.01659	2
0	26609	117.023384	3
0	26615	117.023438	2
0	26662	117.040472	3
0	26668	117.040526	2
0	26676	117.04496	3
0	26682	117.045014	2
0	26692	117.063408	3
0	26698	117.063462	2
0	26956	118	3
0	26962	118.000054	2
0	26970	118.001248	3
0	26976	118.001302	2
0	26984	118.001496	3
0	26990	118.00155	2
0	26998	118.009784	3
0	27004	118.009838	2
0	27013	118.010772	3
0	27019	118.010826	2
0	27031	118.02322	3
0	27037	118.023274	2
0	27045	118.024348	3
0	27051	118.024402	2
0	27347	119	3
0	27353	119.000054	2
0	27361	119.002568	3
0	27367	119.002622	2
0	27376	119.010176	3
0	27382	119.01023	2
0	27429	119.026984	3
0	27435	119.027038	2
0	27478	119.037612	3
0	27484	119.037666	2
0	27527	119.04814	3
0	27533	119.048194	2
0	27542	119.049208	3
0	27548	119.049262	2
0	27825	120	3
0	27832	120.000054	2
0	27841	120.007668	3
0	27847	120.007722	2
0	27856	120.011496	3
0	27862	120.01155	2
0	27872	120.023324	3
0	27878	120.023378	2
0	27958	120.037272	3
0	27964	120.037326	2
0	27990	120.04582	3
0	27996	120.045874	2
0	28006	120.049508	3
0	28012	120.049562	2
0	28305	121	3
0	28311	121.000054	2
0	28319	121.001648	3
0	28325	121.001702	2
0	28335	121.020636	3
0	28341	121.02069	2
0	28349	121.021804	3
0	28355	121.021858	2
0	28400	121.031952	3
0	28406	121.032006	2
0	28414	121.03392	3
0	28420	121.033974	2
0	28432	121.046928	3
0	28438	121.046982	2
0	28696	122	3
0	28702	122.00005	2
0	29093	123	3
0	29099	123.00005	2
0	29106	123.0121	3
0	29112	123.01215	2
0	29304	124	3
0	29310	124.00005	2
0	29317	124.01682	3
0	29323	124.01687	2
0	29593	125	3
0	29599	125.00005	2
0	29605	125.00354	3
0	29611	125.003594	2
0	29621	125.018108	3
0	29627	125.018162	2
0	29635	125.023056	3
0	29641	125.02311	2
0	29709	125.030544	3
0	29715	125.030598	2
0	29727	125.038552	3
0	29733	125.038606	2
0	29742	125.04808	3
0	29748	125.048134	2
0	29758	125.064908	3
0	29764	125.064962	2
0	29969	126	3
0	29975	126.00005	2
0	30200	127	3
0	30206	127.00005	2
0	30212	127.00016	3
0	30218	127.00021	2
0	30351	128	3
0	30357	128.00005	2
0	30363	128.00048	3
0	30369	128.00053	2
0	30375	128.0008	3
0	30381	128.000854	2
0	30389	128.001648	3
0	30395	128.001702	2
0	30403	128.002616	3
0	30409	128.00267	2
0	30417	128.007764	3
0	30423	128.007818	2
0	30434	128.010932	3
0	30440	128.010986	2
0	30450	128.01614	3
0	30456	128.016194	2
0	30491	128.031168	3
0	30497	128.031222	2
0	30606	129	3
0	30612	129.00005	2
0	30618	129.0003	3
0	30624	129.00035	2
0	30871	130	3
0	30877	130.00005	2
0	30883	130.00038	3
0	30889	130.000434	2
0	30897	130.000848	3
0	30903	130.000902	2
0	30911	130.002976	3
0	30917	130.00303	2
0	30925	130.006944	3
0	30931	130.006998	2
0	30943	130.014552	3
0	30949	130.014606	2
0	30998	130.02954	3
0	31004	130.029594	2
0	31012	130.035488	3
0	31018	130.035542	2
0	31206	131	3
0	31212	131.00005	2
0	31218	131.00062	3
0	31224	131.00067	2
0	31448	132	3
0	31454	132.00005	2
0	31597	133	3
0	31603	133.00005	2
0	31730	134	3
0	31737	134.00005	2
0	31944	135	3
0	31950	135.00005	2
0	31956	135.00032	3
0	31962	135.000374	2
0	31970	135.000688	3
0	31976	135.000742	2
0	31984	135.002996	3
0	31990	135.00305	2
0	31998	135.005744	3
0	32004	135.005798	2
0	32015	135.012092	3
0	32021	135.012146	2
0	32032	135.02258	3
0	32038	135.022634	2
0	32184	135.038428	3
0	32190	135.038482	2
0	32296	136	3
0	32302	136.00005	2
0	32444	137	3
0	32450	137.00005	2
0	32595	138	3
0	32601	138.00005	2
0	32607	138.00054	3
0	32613	138.000594	2
0	32621	138.000948	3
0	32627	138.001002	2
0	32635	138.003376	3
0	32641	138.00343	2
0	32649	138.007024	3
0	32655	138.007078	2
0	32666	138.011052	3
0	32672	138.011106	2
0	32681	138.01654	3
0	32687	138.016594	2
0	32736	138.034788	3
0	32742	138.034842	2
0	32849	139	3
0	32855	139.00005	2
0	32998	140	3
0	33004	140.00005	2
0	33131	141	3
0	33138	141.00005	2
0	33266	142	3
0	33272	142.00005	2
0	33437	143	3
0	33443	143.00005	2
0	33573	144	3
0	33579	144.00005	2
0	33585	144.00064	3
0	33591	144.00069	2
0	33706	145	3
0	33712	145.00005	2
0	33718	145.00062	3
0	33724	145.00067	2
0	33730	145.0009	3
0	33736	145.000954	2
0	33744	145.002048	3
0	33750	145.002102	2
0	33758	145.004096	3
0	33764	145.00415	2
0	33772	145.006124	3
0	33778	145.006178	2
0	33789	145.011732	3
0	33795	145.011786	2
0	33807	145.0261	3
0	33813	145.026154	2
0	33844	145.042308	3
0	33850	145.042362	2
0	34050	146	3
0	34056	146.00005	2
0	34062	146.00022	3
0	34068	146.000274	2
0	34076	146.001348	3
0	34082	146.001402	2
0	34090	146.001656	3
0	34096	146.00171	2
0	34104	146.004244	3
0	34110	146.004298	2
0	34118	146.008252	3
0	34124	146.008306	2
0	34137	146.01484	3
0	34143	146.014894	2
0	34151	146.016228	3
0	34157	146.016282	2
0	34304	147	3
0	34310	147.000054	2
0	34318	147.000728	3
0	34324	147.000782	2
0	34332	147.000976	3
0	34338	147.00103	2
0	34346	147.001404	3
0	34352	147.001458	2
0	34360	147.003832	3
0	34366	147.003886	2
0	34379	147.01898	3
0	34385	147.019034	2
0	34416	147.038628	3
0	34422	147.038682	2
0	34524	148	3
0	34530	148.000054	2
0	34539	148.016308	3
0	34545	148.016362	2
0	34575	148.030456	3
0	34581	148.03051	2
0	34589	148.031844	3
0	34595	148.031898	2
0	34605	148.041052	3
0	34611	148.041106	2
0	34621	148.0578	3
0	34627	148.057854	2
0	34635	148.066788	3
0	34641	148.066842	2
0	34743	149	3
0	34749	149.000054	2
0	34758	149.012188	3
0	34764	149.012242	2
0	34772	149.014576	3
0	34778	149.01463	2
0	34786	149.016864	3
0	34792	149.016918	2
0	34800	149.019992	3
0	34806	149.020046	2
0	34888	149.03194	3
0	34894	149.031994	2
0	34923	149.047068	3
0	34929	149.047122	2
0	35061	150	3
0	35067	150.00005	2
0	35276	151	3
0	35282	151.00005	2
0	35289	151.0102	3
0	35295	151.01025	2
0	35575	152	3
0	35583	152.00005	2
0	35589	152.0089	3
0	35595	152.00895	2
0	35824	153	3
0	35831	153.00005	2
0	35838	153.01538	3
0	35844	153.01543	2
0	36068	154	3
0	36074	154.00005	2
0	36284	155	3
0	36290	155.00005	2
0	36297	155.01112	3
0	36303	155.011174	2
0	36311	155.013808	3
0	36317	155.013862	2
0	36325	155.018096	3
0	36331	155.01815	2
0	36339	155.018504	3
0	36345	155.018558	2
0	36354	155.021912	3
0	36360	155.021966	2
0	36388	155.03178	3
0	36394	155.031834	2
0	36404	155.040328	3
0	36410	155.040382	2
0	36510	156	3
0	36516	156.00005	2
0	36634	157	3
0	36640	157.00005	2
0	36646	157.00066	3
0	36652	157.000714	2
[...]
199	42600	183.3	0
199	42600	183.4	0
199	42600	183.5	0
199	42600	183.6	0
199	42600	183.7	0
199	42600	183.8	0
199	42600	183.9	0
199	42600	184	0
199	42600	184.1	0
199	42600	184.2	0
199	42785	184.3	800
199	42785	184.4	0
199	42785	184.5	0
199	42785	184.6	0
199	42785	184.7	0
199	42785	184.8	0
199	42785	184.9	0
199	42785	185	0
199	42785	185.1	0
199	42785	185.2	0
199	43316	185.3	800
199	43316	185.4	0
199	43316	185.5	0
199	43316	185.6	0
199	43316	185.7	0
199	43316	185.8	0
199	43316	185.9	0
199	43316	186	0
199	43316	186.1	0
199	43316	186.2	0
199	43316	186.3	0
199	43316	186.4	0
199	43316	186.5	0
199	43316	186.6	0
199	43316	186.7	0
199	43316	186.8	0
199	43316	186.9	0
199	43316	187	0
199	43316	187.1	0
199	43316	187.2	0
199	43316	187.3	0
199	43316	187.4	0
199	43316	187.5	0
199	43316	187.6	0
199	43316	187.7	0
199	43316	187.8	0
199	43316	187.9	0
199	43316	188	0
199	43316	188.1	0
199	43316	188.2	0
199	47186	188.3	800
199	47186	188.4	0
199	47186	188.5	0
199	47186	188.6	0
199	47186	188.7	0
199	47186	188.8	0
199	47186	188.9	0
199	47186	189	0
199	47186	189.1	0
199	47186	189.2	0
199	47186	189.3	0
199	47186	189.4	0
199	47186	189.5	0
199	47186	189.6	0
199	47186	189.7	0
199	47186	189.8	0
199	47186	189.9	0
199	47186	190	0
199	47186	190.1	0
199	47186	190.2	0
199	47186	190.3	0
199	47186	190.4	0
199	47186	190.5	0
199	47186	190.6	0
199	47186	190.7	0
199	47186	190.8	0
199	47186	190.9	0
199	47186	191	0
199	47186	191.1	0
199	47186	191.2	0
199	47186	191.3	0
199	47186	191.4	0
199	47186	191.5	0
199	47186	191.6	0
199	47186	191.7	0
199	47186	191.8	0
199	47186	191.9	0
199	47186	192	0
199	47186	192.1	0
199	47186	192.2	0
199	47186	192.3	0
199	47186	192.4	0
199	47186	192.5	0
199	47186	192.6	0
199	47186	192.7	0
199	47186	192.8	0
199	47186	192.9	0
199	47186	193	0
199	47186	193.1	0
199	47186	193.2	0
199	47186	193.3	0
199	47186	193.4	0
199	47186	193.5	0
199	47186	193.6	0
199	47186	193.7	0
199	47186	193.8	0
199	47186	193.9	0
199	47186	194	0
199	47186	194.1	0
199	47186	194.2	0
199	47186	194.3	0
199	47186	194.4	0
199	47186	194.5	0
199	47186	194.6	0
199	47186	194.7	0
199	47186	194.8	0
199	47186	194.9	0
199	47186	195	0
199	47186	195.1	0
199	47186	195.2	0
199	47186	195.3	0
199	47186	195.4	0
199	47186	195.5	0
199	47186	195.6	0
199	47186	195.7	0
199	47186	195.8	0
199	47186	195.9	0
199	47186	196	0
199	47186	196.1	0
199	47186	196.2	0
199	47186	196.3	0
199	47186	196.4	0
199	47186	196.5	0
199	47186	196.6	0
199	47186	196.7	0
199	47186	196.8	0
199	47186	196.9	0
199	47186	197	0
199	47186	197.1	0
199	47186	197.2	0
199	47186	197.3	0
199	47186	197.4	0
199	47186	197.5	0
199	47186	197.6	0
199	47186	197.7	0
199	47186	197.8	0
199	47186	197.9	0
199	47186	198	0
199	47186	198.1	0
199	47186	198.2	0
199	47186	198.3	0
199	47186	198.4	0
199	47186	198.5	0
199	47186	198.6	0
199	57059	198.7	1600
199	57059	198.8	0
199	57059	198.9	0
199	57059	199	0
199	57059	199.1	0
199	57059	199.2	0
199	57059	199.3	0
199	57059	199.4	0
199	57059	199.5	0
199	57059	199.6	0
199	57059	199.7	0
199	57059	199.8	0
199	57059	199.9	0
199	57059	200	0
199	57059	200.1	0
199	57059	200.2	0
199	57059	200.3	0
199	57059	200.4	0
199	57059	200.5	0
199	57059	200.6	0
199	57059	200.7	0
199	57059	200.8	0
199	57059	200.9	0
199	57059	201	0
199	57059	201.1	0
199	57059	201.2	0
199	57059	201.3	0
199	57059	201.4	0
199	57059	201.5	0
199	57059	201.6	0
199	57059	201.7	0
199	57059	201.8	0
199	57059	201.9	0
199	57059	202	0
199	57059	202.1	0
199	57059	202.2	0
199	57059	202.3	0
199	57059	202.4	0
199	57059	202.5	0
199	57059	202.6	0
199	57059	202.7	0
199	57059	202.8	0
199	57059	202.9	0
199	57059	203	0
199	57059	203.1	0
199	57059	203.2	0
199	57059	203.3	0
199	57059	203.4	0
199	57059	203.5	0
199	57059	203.6	0
199	57059	203.7	0
199	57059	203.8	0
199	57059	203.9	0
199	57059	204	0
199	57059	204.1	0
199	57059	204.2	0
199	57059	204.3	0
199	57059	204.4	0
199	57059	204.5	0
199	57059	204.6	0
199	57059	204.7	0
199	57059	204.8	0
199	57059	204.9	0
199	57059	205	0
199	57059	205.1	0
199	57059	205.2	0
199	57059	205.3	0
199	57059	205.4	0
199	57059	205.5	0
199	57059	205.6	0
199	57059	205.7	0
199	57059	205.8	0
199	57059	205.9	0
199	57059	206	0
199	57059	206.1	0
199	57059	206.2	0
199	57059	206.3	0
199	57059	206.4	0
199	57059	206.5	0
199	57059	206.6	0
199	57059	206.7	0
199	57059	206.8	0
199	57059	206.9	0
199	57059	207	0
199	57059	207.1	0
199	57059	207.2	0
199	57059	207.3	0
199	57059	207.4	0
199	57059	207.5	0
199	57059	207.6	0
199	57059	207.7	0
199	57059	207.8	0
199	57059	207.9	0
199	57059	208	0
199	57059	208.1	0
199	57059	208.2	0
199	57059	208.3	0
199	57059	208.4	0
199	57059	208.5	0
199	57059	208.6	0
199	57059	208.7	0
199	57059	208.8	0
199	57059	208.9	0
199	57059	209	0
199	57059	209.1	0
199	57059	209.2	0
199	57059	209.3	0
199	57059	209.4	0
199	57059	209.5	0
199	57059	209.6	0
199	57059	209.7	0
199	57059	209.8	0
199	57059	209.9	0
199	57059	210	0
199	57059	210.1	0
199	57059	210.2	0
199	57059	210.3	0
199	57059	210.4	0
199	57059	210.5	0
199	57059	210.6	0
199	57059	210.7	0
199	57059	210.8	0
199	57059	210.9	0
199	57059	211	0
199	57059	211.1	0
199	57059	211.2	0
199	57059	211.3	0
199	57059	211.4	0
199	57059	211.5	0
199	57059	211.6	0
199	57059	211.7	0
199	57059	211.8	0
199	57059	211.9	0
199	57059	212	0
199	57059	212.1	0
199	57059	212.2	0
199	57059	212.3	0
199	57059	212.4	0
199	57059	212.5	0
199	57059	212.6	0
199	57059	212.7	0
199	57059	212.8	0
199	57059	212.9	0
199	57059	213	0
199	57059	213.1	0
199	57059	213.2	0
199	57059	213.3	0
199	57059	213.4	0
199	57059	213.5	0
199	57059	213.6	0
199	57059	213.7	0
199	57059	213.8	0
199	57059	213.9	0
199	57059	214	0
199	57059	214.1	0
199	57059	214.2	0
199	57059	214.3	0
199	57059	214.4	0
199	57059	214.5	0
199	57059	214.6	0
199	57059	214.7	0
199	57059	214.8	0
199	57059	214.9	0
199	57059	215	0
199	57059	215.1	0
199	57059	215.2	0
199	57059	215.3	0
199	57059	215.4	0
199	57059	215.5	0
199	57059	215.6	0
199	57059	215.7	0
199	57059	215.8	0
199	57059	215.9	0
199	57059	216	0
199	57059	216.1	0
199	57059	216.2	0
199	57059	216.3	0
199	57059	216.4	0
199	57059	216.5	0
199	57059	216.6	0
199	57059	216.7	0
199	57059	216.8	0
199	57059	216.9	0
199	57059	217	0
199	57059	217.1	0
199	57059	217.2	0
199	57059	217.3	0
199	57059	217.4	0
199	57059	217.5	0
199	57059	217.6	0
199	57059	217.7	0
199	57059	217.8	0
199	57059	217.9	0
199	57059	218	0
199	57059	218.1	0
199	57059	218.2	0
199	57059	218.3	0
199	57059	218.4	0
199	57059	218.5	0
199	57059	218.6	0
199	57059	218.7	0
199	57059	218.8	0
199	57059	218.9	0
199	57059	219	0
199	57059	219.1	0
199	57059	219.2	0
199	57059	219.3	0
199	57059	219.4	0
199	57059	219.5	0
199	57059	219.6	0
199	57059	219.7	0
199	57059	219.8	0
199	57059	219.9	0
199	57059	220	0
199	57059	220.1	0
199	57059	220.2	0
199	57059	220.3	0
199	57059	220.4	0
199	57059	220.5	0
199	57059	220.6	0
199	57059	220.7	0
199	57059	220.8	0
199	57059	220.9	0
199	57059	221	0
199	57059	221.1	0
199	57059	221.2	0
199	57059	221.3	0
199	57059	221.4	0
199	57059	221.5	0
199	57059	221.6	0
199	57059	221.7	0
199	57059	221.8	0
199	57059	221.9	0
199	57059	222	0
199	57059	222.1	0
199	57059	222.2	0
199	57059	222.3	0
199	57059	222.4	0
199	57059	222.5	0
199	57059	222.6	0
199	57059	222.7	0
199	57059	222.8	0
199	57059	222.9	0
199	57059	223	0
199	57059	223.1	0
199	57059	223.2	0
199	57059	223.3	0
199	57059	223.4	0
199	57059	223.5	0
199	57059	223.6	0
199	57059	223.7	0
199	57059	223.8	0
199	57059	223.9	0
199	57059	224	0
199	57059	224.1	0
199	57059	224.2	0
199	57059	224.3	0
199	57059	224.4	0
199	57059	224.5	0
199	57059	224.6	0
199	57059	224.7	0
199	57059	224.8	0
199	57059	224.9	0
199	57059	225	0
199	57059	225.1	0
199	57059	225.2	0
199	57059	225.3	0
199	57059	225.4	0
199	57059	225.5	0
199	57059	225.6	0
199	57059	225.7	0
199	57059	225.8	0
199	57059	225.9	0
199	57059	226	0
199	57059	226.1	0
199	57059	226.2	0
199	57059	226.3	0
199	57059	226.4	0
199	57059	226.5	0
199	57059	226.6	0
199	57059	226.7	0
199	57059	226.8	0
199	57059	226.9	0
199	57059	227	0
199	57059	227.1	0
199	57059	227.2	0
199	57059	227.3	0
199	57059	227.4	0
199	57059	227.5	0
199	57059	227.6	0
199	57059	227.7	0
199	57059	227.8	0
199	57059	227.9	0
199	57059	228	0
199	57059	228.1	0
199	57059	228.2	0
199	57059	228.3	0
199	57059	228.4	0
199	57059	228.5	0
199	57059	228.6	0
199	57059	228.7	0
199	57059	228.8	0
199	57059	228.9	0
199	57059	229	0
199	57205	229.1	800
199	57205	229.2	0
199	57205	229.3	0
199	57205	229.4	0
199	57205	229.5	0
199	57205	229.6	0
199	57353	229.7	800
199	57353	229.8	0
199	57353	229.9	0
199	57353	230	0
199	57353	230.1	0
199	57353	230.2	0
199	57353	230.3	0
199	57353	230.4	0
199	57353	230.5	0
199	57353	230.6	0
199	57591	230.7	800
199	57591	230.8	0
199	57591	230.9	0
199	57591	231	0
199	57591	231.1	0
199	57591	231.2	0
199	57591	231.3	0
199	57591	231.4	0
199	57591	231.5	0
199	57591	231.6	0
199	57860	231.7	800
199	57860	231.8	0
199	57860	231.9	0
199	57860	232	0
199	57860	232.1	0
199	57860	232.2	0
199	57860	232.3	0
199	57860	232.4	0
199	57860	232.5	0
199	57860	232.6	0
199	62048	232.7	800
199	62048	232.8	0
199	62048	232.9	0
199	62048	233	0
199	62048	233.1	0
199	62048	233.2	0
199	62048	233.3	0
199	62048	233.4	0
199	62048	233.5	0
199	62048	233.6	0
199	62048	233.7	0
199	62048	233.8	0
199	62048	233.9	0
199	62048	234	0
199	62048	234.1	0
199	62048	234.2	0
199	62048	234.3	0
199	62048	234.4	0
199	62048	234.5	0
199	62048	234.6	0
199	62048	234.7	0
199	62048	234.8	0
199	62048	234.9	0
199	62048	235	0
199	62048	235.1	0
199	62048	235.2	0
199	62048	235.3	0
199	62048	235.4	0
199	62048	235.5	0
199	62048	235.6	0
199	62048	235.7	0
199	62048	235.8	0
199	62048	235.9	0
199	62048	236	0
199	62048	236.1	0
199	62048	236.2	0
199	62048	236.3	0
199	62048	236.4	0
199	62048	236.5	0
199	62048	236.6	0
199	62048	236.7	0
199	62048	236.8	0
199	62048	236.9	0
199	62048	237	0
199	62048	237.1	0
199	62048	237.2	0
199	62048	237.3	0
199	62048	237.4	0
199	62048	237.5	0
199	62048	237.6	0
199	62048	237.7	0
199	62048	237.8	0
199	62048	237.9	0
199	62048	238	0
199	62048	238.1	0
199	62048	238.2	0
199	62048	238.3	0
199	62048	238.4	0
199	62048	238.5	0
199	62048	238.6	0
199	62048	238.7	0
199	62048	238.8	0
199	62048	238.9	0
199	62048	239	0
199	62048	239.1	0
199	62048	239.2	0
199	62048	239.3	0
199	62048	239.4	0
199	62048	239.5	0
199	62048	239.6	0
199	62048	239.7	0
199	62048	239.8	0
199	62048	239.9	0
199	62048	240	0
199	62048	240.1	0
199	62048	240.2	0
199	62048	240.3	0
199	62048	240.4	0
199	62048	240.5	0
199	62048	240.6	0
199	62048	240.7	0
199	62048	240.8	0
199	62048	240.9	0
199	62048	241	0
199	62048	241.1	0
199	62048	241.2	0
199	62048	241.3	0
199	62048	241.4	0
199	62048	241.5	0
199	62048	241.6	0
199	62048	241.7	0
199	62048	241.8	0
199	62048	241.9	0
199	62048	242	0
199	62048	242.1	0
199	62048	242.2	0
199	62048	242.3	0
199	62048	242.4	0
199	62048	242.5	0
199	62048	242.6	0
199	62048	242.7	0
199	62048	242.8	0
199	62048	242.9	0
199	62048	243	0
199	62048	243.1	0
199	62048	243.2	0
199	62048	243.3	0
199	62048	243.4	0
199	62048	243.5	0
199	62048	243.6	0
199	62048	243.7	0
199	62048	243.8	0
199	62048	243.9	0
199	62048	244	0
199	62048	244.1	0
199	62048	244.2	0
199	62048	244.3	0
199	62048	244.4	0
199	62048	244.5	0
199	62048	244.6	0
199	62048	244.7	0
199	62048	244.8	0
199	62048	244.9	0
199	62048	245	0
199	62048	245.1	0
199	62048	245.2	0
199	62048	245.3	0
199	62048	245.4	0
199	62048	245.5	0
199	62048	245.6	0
199	62048	245.7	0
199	62048	245.8	0
199	62048	245.9	0
199	62048	246	0
199	62048	246.1	0
199	62048	246.2	0
199	62048	246.3	0
199	62048	246.4	0
199	62048	246.5	0
199	62048	246.6	0
199	63134	246.7	800
199	63134	246.8	0
199	63134	246.9	0
199	63134	247	0
199	63134	247.1	0
199	63134	247.2	0
199	63134	247.3	0
199	63134	247.4	0
199	63134	247.5	0
199	63134	247.6	0
199	63134	247.7	0
199	63134	247.8	0
199	63134	247.9	0
199	63134	248	0
199	63134	248.1	0
199	63134	248.2	0
199	63134	248.3	0
199	63134	248.4	0
199	63134	248.5	0
199	63134	248.6	0
199	63134	248.7	0
199	63134	248.8	0
199	63134	248.9	0
199	63134	249	0
199	63134	249.1	0
199	63134	249.2	0
199	63134	249.3	0
199	63134	249.4	0
199	63134	249.5	0
199	63134	249.6	0
199	63248	249.7	800
199	63248	249.8	0
199	63248	249.9	0
199	63248	250	0
199	63456	250.1	800
199	63456	250.2	0
199	63456	250.3	0
199	63456	250.4	0
199	63456	250.5	0
199	63456	250.6	0
199	63825	250.7	800
199	63825	250.8	0
199	63825	250.9	0
199	63825	251	0
199	63825	251.1	0
199	63825	251.2	0
199	63825	251.3	0
199	63825	251.4	0
199	63825	251.5	0
199	63825	251.6	0
199	64178	251.7	800
199	64178	251.8	0
199	64178	251.9	0
199	64178	252	0
199	64178	252.1	0
199	64178	252.2	0
199	64178	252.3	0
199	64178	252.4	0
199	64178	252.5	0
199	64178	252.6	0
199	64328	252.7	800
199	64328	252.8	0
199	64328	252.9	0
199	64328	253	0
199	64328	253.1	0
199	64328	253.2	0
199	64328	253.3	0
199	64328	253.4	0
199	64328	253.5	0
199	64328	253.6	0
199	64494	253.7	800
199	64494	253.8	0
199	64494	253.9	0
199	64494	254	0
199	64494	254.1	0
199	64494	254.2	0
199	64494	254.3	0
199	64494	254.4	0
199	64494	254.5	0
199	64494	254.6	0
199	65718	254.7	800
199	65718	254.8	0
199	65718	254.9	0
199	65718	255	0
199	65718	255.1	0
199	65718	255.2	0
199	65718	255.3	0
199	65718	255.4	0
199	65718	255.5	0
199	65718	255.6	0
199	65718	255.7	0
199	65718	255.8	0
199	65718	255.9	0
199	65718	256	0
199	65718	256.1	0
199	65718	256.2	0
199	65718	256.3	0
199	65718	256.4	0
199	65718	256.5	0
199	65718	256.6	0
199	65718	256.7	0
199	65718	256.8	0
199	65718	256.9	0
199	65718	257	0
199	65718	257.1	0
199	65718	257.2	0
199	65718	257.3	0
199	65718	257.4	0
199	65718	257.5	0
199	65718	257.6	0
199	65718	257.7	0
199	65718	257.8	0
199	65718	257.9	0
199	65718	258	0
199	65718	258.1	0
199	65718	258.2	0
199	65718	258.3	0
199	65718	258.4	0
199	65718	258.5	0
199	65718	258.6	0
199	65718	258.7	0
199	65718	258.8	0
199	65718	258.9	0
199	65718	259	0
199	65718	259.1	0
199	65718	259.2	0
199	65718	259.3	0
199	65718	259.4	0
199	65718	259.5	0
199	65718	259.6	0
199	65718	259.7	0
199	65718	259.8	0
199	65718	259.9	0
199	65718	260	0
199	65718	260.1	0
199	65718	260.2	0
199	65718	260.3	0
199	65718	260.4	0
199	65718	260.5	0
199	65718	260.6	0
199	66712	260.7	800
199	66712	260.8	0
199	66712	260.9	0
199	66712	261	0
199	66712	261.1	0
199	66712	261.2	0
199	66712	261.3	0
199	66712	261.4	0
199	66712	261.5	0
199	66712	261.6	0
199	66712	261.7	0
199	66712	261.8	0
199	66712	261.9	0
199	66712	262	0
199	66712	262.1	0
199	66712	262.2	0
199	66712	262.3	0
199	66712	262.4	0
199	66712	262.5	0
199	66712	262.6	0
199	66712	262.7	0
199	66712	262.8	0
199	66712	262.9	0
199	66712	263	0
199	66712	263.1	0
199	66712	263.2	0
199	66712	263.3	0
199	66712	263.4	0
199	66712	263.5	0
199	66712	263.6	0
199	66712	263.7	0
199	66712	263.8	0
199	66712	263.9	0
199	66712	264	0
199	66712	264.1	0
199	66712	264.2	0
199	66983	264.3	800
199	66983	264.4	0
199	66983	264.5	0
199	66983	264.6	0
199	66983	264.7	0
199	66983	264.8	0
199	66983	264.9	0
199	66983	265	0
199	66983	265.1	0
199	66983	265.2	0
199	67304	265.3	800
199	67304	265.4	0
199	67304	265.5	0
199	67304	265.6	0
199	67304	265.7	0
199	67304	265.8	0
199	67304	265.9	0
199	67304	266	0
199	67304	266.1	0
199	67304	266.2	0
199	68376	266.3	800
199	68376	266.4	0
199	68376	266.5	0
199	68376	266.6	0
199	68376	266.7	0
199	68376	266.8	0
199	68376	266.9	0
199	68376	267	0
199	68376	267.1	0
199	68376	267.2	0
199	68376	267.3	0
199	68376	267.4	0
199	68376	267.5	0
199	68376	267.6	0
199	68376	267.7	0
199	68376	267.8	0
199	68376	267.9	0
199	68376	268	0
199	68376	268.1	0
199	68376	268.2	0
199	68376	268.3	0
199	68376	268.4	0
199	68376	268.5	0
199	68376	268.6	0
199	68376	268.7	0
199	68376	268.8	0
199	68376	268.9	0
199	68376	269	0
199	68376	269.1	0
199	68376	269.2	0
199	68724	269.3	800
199	68724	269.4	0
199	68724	269.5	0
199	68724	269.6	0
199	68724	269.7	0
199	68724	269.8	0
199	68724	269.9	0
199	68724	270	0
199	68724	270.1	0
199	68724	270.2	0
199	68724	270.3	0
199	68724	270.4	0
199	68724	270.5	0
199	68724	270.6	0
199	68724	270.7	0
199	68724	270.8	0
199	68724	270.9	0
199	68724	271	0
199	68724	271.1	0
199	68724	271.2	0
199	69618	271.3	800
199	69618	271.4	0
199	69618	271.5	0
199	69618	271.6	0
199	69618	271.7	0
199	69618	271.8	0
199	69618	271.9	0
199	69618	272	0
199	69618	272.1	0
199	69618	272.2	0
199	69618	272.3	0
199	69618	272.4	0
199	69618	272.5	0
199	69618	272.6	0
199	69618	272.7	0
199	69618	272.8	0
199	69618	272.9	0
199	69618	273	0
199	69618	273.1	0
199	69618	273.2	0
199	69618	273.3	0
199	69618	273.4	0
199	69618	273.5	0
199	69618	273.6	0
199	69618	273.7	0
199	69618	273.8	0
199	69618	273.9	0
199	69618	274	0
199	69618	274.1	0
199	69618	274.2	0
199	70376	274.3	800
199	70376	274.4	0
199	70376	274.5	0
199	70376	274.6	0
199	70376	274.7	0
199	70376	274.8	0
199	70376	274.9	0
199	70376	275	0
199	70376	275.1	0
199	70376	275.2	0
199	70376	275.3	0
199	70376	275.4	0
199	70376	275.5	0
199	70376	275.6	0
199	70376	275.7	0
199	70376	275.8	0
199	70376	275.9	0
199	70376	276	0
199	70376	276.1	0
199	70376	276.2	0
199	70376	276.3	0
199	70376	276.4	0
199	70376	276.5	0
199	70376	276.6	0
200	32118	135.027065158936	0.000428206907
200	32261	135.65354219423	5.4181776e-005
200	32411	136.653542178643	5.4166189e-005
200	32560	137.653542168996	5.4156542e-005
200	32816	138.653542174924	5.416247e-005
200	32965	139.653542194894	5.418244e-005
200	33204	141.251059064337	5.4317185e-005
200	33340	142.251059087194	5.4340042e-005
200	33495	143.251059120713	5.4373561e-005
200	38647	162.65463842163	0.001150409176
200	39165	164.653542327768	5.4315314e-005
200	39737	167.653542187771	5.4175317e-005
200	40149	170.6538820583	0.000394045846
200	40378	171.653542033375	5.4020921e-005
200	40452	171.6544580753	0.000588020982
200	40724	172.653542033313	5.4020859e-005
200	40896	173.653542091552	5.4079098e-005
200	41045	174.653542128453	5.4115999e-005
200	41195	175.653542170547	5.4158093e-005
200	41369	176.653542214899	5.4202445e-005
200	41639	178.25105904953	5.4302378e-005
200	41837	179.653702352548	0.000214340094
200	41964	180.251699108499	0.000694361347
200	42600	184.251259106025	0.000254358873
200	42785	185.251559105641	0.000554358489
200	43316	188.251259127016	0.000254379864
200	47186	198.658758429192	0.005270416738
200	47370	198.685515761609	0.005505249394
200	57059	229.02672517419	0.000468214527
200	57205	229.654242225428	0.000754212974
200	57353	230.653542291805	5.4279351e-005
200	57591	231.653542358428	5.4345974e-005
200	57860	232.655038425174	0.00155041272
200	62048	246.653662268699	0.000174256245
200	63134	249.653642146029	0.000154133575
200	63248	250.026504985414	0.000248120147
200	63456	250.65354211317	5.4100716e-005
200	63825	251.653542149634	5.413718e-005
200	64178	252.65354219105	5.4178596e-005
200	64328	253.653542234772	5.4222318e-005
200	64494	254.65354227967	5.4267216e-005
200	65718	260.654850416441	0.001362403987
200	66712	264.251058985259	5.4238107e-005
200	66983	265.251058985491	5.4238339e-005
200	67304	266.251058994875	5.4247723e-005
200	68376	269.251059028084	5.4280932e-005
200	68724	271.251059061852	5.43147e-005
200	69618	274.251059072994	5.4325842e-005
200	70376	276.65354240436	5.4391906e-005
200	70475	276.659827971954	0.006017175688
201	33519	143.653488012454	38
201	33519	143.653488012454	38
201	38271	161.653488012454	38
201	39146	164.653488012454	38
201	40359	171.653488012454	38
201	40359	171.653488012454	38
201	42147	181.653488012454	38
201	42147	181.653488012454	38
201	42625	184.653488012454	38
201	43195	187.653488012454	38
201	43195	187.653488012454	38
201	44094	190.653488012454	38
201	45559	194.653488012454	38
201	46657	197.653488012454	38
201	46657	197.653488012454	38
201	54710	222.653488012454	38
201	54710	222.653488012454	38
201	54710	222.653488012454	38
201	57334	230.653488012454	38
201	61010	243.653488012454	38
201	62339	247.653488012454	38
201	62339	247.653488012454	38
201	63437	250.653488012454	38
201	66737	264.653488012454	38
201	68399	269.653488012454	38
201	69166	272.653488012454	38
201	69166	272.653488012454	38
201	69166	272.653488012454	38
201	70121	275.653488012454	38
202	47446	198.709354177974	74
202	50308	205.703645691248	74
202	50411	205.724876528922	74
202	51740	211.251527944109	74
202	70684	277.028293970306	74
203	47446	198.709354177974	74
203	50308	205.703645691248	74
203	50411	205.724876528922	74
203	51740	211.251527944109	74
203	70684	277.028293970306	74
204	67651	267.667015261267	74
205	67651	267.667015261267	74
