file 16222442 1627570573                                        
version 2
run Sim4drone-0-20210729-11:46:46-16824
attr configname Sim4drone
attr datetime 20210729-11:46:46
attr experiment Sim4drone
attr inifile mobilityDrones-omnetpp.ini
attr iterationvars ""
attr iterationvarsf ""
attr measurement ""
attr network mobilityDrones
attr processid 16824
attr repetition 0
attr replication #0
attr resultdir results
attr runnumber 0
attr seedset 0
param *.numUAVs 4
param *.quads[0].app[0].destAddresses "\"quads[1] quads[2] quads[3] sensors[0] sensors[1] sensors[2] groundStation\""
param *.quads[1].app[0].destAddresses "\"quads[0] quads[2] quads[3] sensors[0] sensors[1] sensors[2] groundStation\""
param *.quads[2].app[0].destAddresses "\"quads[0] quads[1] quads[3] sensors[0] sensors[1] sensors[2] groundStation\""
param *.quads[3].app[0].destAddresses "\"quads[0] quads[1] quads[2] sensors[0] sensors[1] sensors[2] groundStation\""
param *.quads[*].mobility.waypointFile "\"paths/voo2.waypoints\""
param *.quads[*].app[*].timeoutDuration 5s
param *.quads[0].mobility.startTime 0s
param *.quads[1].mobility.startTime 40s
param *.quads[2].mobility.startTime 80s
param *.quads[3].mobility.startTime 110s
param *.quads[0].app[*].startTime "normal(1s, 1s)"
param *.quads[1].app[*].startTime "normal(40s, 1s)"
param *.quads[2].app[*].startTime "normal(80s, 1s)"
param *.quads[3].app[*].startTime "normal(110s, 1s)"
param *.numSensors 8
param *.sensors[*].numApps 1
param *.sensors[*].app[0].typename "\"UdpSensorCommunicationApp\""
param *.sensors[*].app[0].destAddresses "\"quads[0] quads[1] quads[2] quads[3]\""
param *.sensors[*].app[0].destPort 1000
param *.sensors[*].app[0].localPort 1000
param *.sensors[*].app[0].sendInterval 8s
param *.sensors[*].app[0].startTime exponential(1s)
param *.sensors[*].app[0].messageLength 1454Byte
param *.sensors[*].mobility.initialAltitude 0m
param *.sensors[0].mobility.initialLatitude -15.84245230deg
param *.sensors[0].mobility.initialLongitude -47.92948720deg
param *.sensors[1].mobility.initialLatitude -15.84262780deg
param *.sensors[1].mobility.initialLongitude -47.92650460deg
param *.sensors[2].mobility.initialLatitude -15.84161630deg
param *.sensors[2].mobility.initialLongitude -47.92395110deg
param *.sensors[3..7].app[0].typename "\"UdpSinkMobileSenserNode\""
param *.sensors[3].mobility.initialLatitude -15.8436264deg
param *.sensors[3].mobility.initialLongitude -47.9270250deg
param *.sensors[4].mobility.initialLatitude -15.8406461deg
param *.sensors[4].mobility.initialLongitude -47.9240263deg
param *.sensors[5].mobility.initialLatitude -15.8416370deg
param *.sensors[5].mobility.initialLongitude -47.9227066deg
param *.sensors[6].mobility.initialLatitude -15.8437115deg
param *.sensors[6].mobility.initialLongitude -47.9259145deg
param *.sensors[7].mobility.initialLatitude -15.8437425deg
param *.sensors[7].mobility.initialLongitude -47.9246378deg
param *.groundStation.mobility.initialLatitude -15.840068deg
param *.groundStation.mobility.initialLongitude -47.926633deg
param *.groundStation.app[0].destAddresses "\"quads[0] quads[1] quads[2] quads[3]\""
param *.groundStation.app[0].startTime 130s
param *.visualizer.osgVisualizer.typename "\"IntegratedOsgVisualizer\""
param *.visualizer.osgVisualizer.sceneVisualizer.typename "\"SceneOsgEarthVisualizer\""
param *.visualizer.osgVisualizer.sceneVisualizer.mapFile "\"map.earth\""
param *.visualizer.osgVisualizer.sceneVisualizer.sceneImageSize 10000m
param *.visualizer.osgVisualizer.sceneVisualizer.axisLength 500m
param *.visualizer.osgVisualizer.sceneVisualizer.sceneMinX -200m
param *.visualizer.osgVisualizer.sceneVisualizer.sceneMinY -200m
param *.visualizer.osgVisualizer.sceneVisualizer.sceneMinZ 0m
param *.visualizer.osgVisualizer.sceneVisualizer.sceneMaxX 5000m
param *.visualizer.osgVisualizer.sceneVisualizer.sceneMaxY 5000m
param *.visualizer.osgVisualizer.sceneVisualizer.sceneMaxZ 5000m
param *.visualizer.osgVisualizer.networkNodeVisualizer.displayModuleName true
param *.visualizer.*.statisticVisualizer.signalName "\"dataLoad\""
param *.visualizer.*.statisticVisualizer.format "\"(%v)\""
param *.visualizer.*.statisticVisualizer.textColor "\"red\""
param *.visualizer.*.statisticVisualizer.font "\"Courier New, 12px, bold\""
param *.visualizer.*.statisticVisualizer.opacity 1
param *.visualizer.*.statisticVisualizer.sourceFilter "\"*.quads[*].** *.groundStation.**\""
param *.visualizer.*.mobilityVisualizer.displayMobility true
param *.visualizer.*.mobilityVisualizer.displayPositions true
param *.visualizer.*.mobilityVisualizer.displayOrientations true
param *.visualizer.*.mobilityVisualizer.displayVelocities true
param *.visualizer.*.mobilityVisualizer.displayMovementTrails true
param *.visualizer.*.mobilityVisualizer.animationSpeed 10
param *.visualizer.mediumVisualizer.displaySignals true
param **.constraintAreaMinX -5000m
param **.constraintAreaMinY -5000m
param **.constraintAreaMinZ -100m
param **.constraintAreaMaxX 5000m
param **.constraintAreaMaxY 5000m
param **.constraintAreaMaxZ 5000m
param *.quads.wlan[0].radio.displayCommunicationRange true
param *.coordinateSystem.sceneLongitude -47.926634deg
param *.coordinateSystem.sceneLatitude -15.840075deg
param *.coordinateSystem.sceneHeading 90deg
param *.environment.ground.typename "\"FlatGround\""
param *.quads[*].osgModel "\"3d/drone.ive.80.scale.0,0,90.rot\""
param *.quads[*].mobility.coordinateSystemModule "\"coordinateSystem\""
param *.quads[*].mobility.waypointFile "\"paths/gradys-vai-e-volta-descendo-5s-v1.txt\""
param *.quads[*].mobility.waypointProximity 1m
param **.mobility.initFromDisplayString false
param *.quads[*].mobility.speed 10mps
param *.quads[*].numApps 1
param *.quads[*].app[0].typename "\"UdpMobileNodeCommunicationApp\""
param *.quads[*].app[0].localPort 1000
param *.quads[*].app[0].destPort 1000
param *.quads[*].app[0].sendInterval 1s
param *.quads[*].app[0].startTime 1s
param *.quads[*].app[0].stopTime -1s
param *.quads[*].app[0].messageLength 1454Byte
param *.quads[*].app[0].packetName "\"UAV-DEFAULT-PAYLOAD\""
param *.quads[*].mobility.typename "\"DroneMobility\""
param *.sensors[*].mobility.typename "\"StationaryMobility\""
param *.sensors[*].mobility.coordinateSystemModule "\"coordinateSystem\""
param *.groundStation.mobility.typename "\"StationaryMobility\""
param *.groundStation.mobility.coordinateSystemModule "\"coordinateSystem\""
param *.groundStation.numApps 1
param *.groundStation.app[0].typename "\"UdpMobileNodeCommunicationApp\""
param *.groundStation.app[0].destPort 1000
param *.groundStation.app[0].localPort 1000
param *.groundStation.app[0].sendInterval 1s
param *.groundStation.app[0].stopTime -1s
param *.groundStation.app[0].messageLength 1454Byte
param *.groundStation.app[0].packetName "\"UAV-DEFAULT-PAYLOAD\""

vector 0 mobilityDrones.quads[0].wlan[0].radio radioMode:vector ETV
attr interpolationmode sample-hold
attr source radioModeChanged
attr title "Radio mode, vector"
vector 1 mobilityDrones.quads[0].wlan[0].radio radioChannel:vector ETV
attr interpolationmode sample-hold
attr source radioChannelChanged
attr title "Radio channel, vector"
vector 2 mobilityDrones.quads[1].wlan[0].radio radioMode:vector ETV
attr interpolationmode sample-hold
attr source radioModeChanged
attr title "Radio mode, vector"
vector 3 mobilityDrones.quads[1].wlan[0].radio radioChannel:vector ETV
attr interpolationmode sample-hold
attr source radioChannelChanged
attr title "Radio channel, vector"
vector 4 mobilityDrones.quads[2].wlan[0].radio radioMode:vector ETV
attr interpolationmode sample-hold
attr source radioModeChanged
attr title "Radio mode, vector"
vector 5 mobilityDrones.quads[2].wlan[0].radio radioChannel:vector ETV
attr interpolationmode sample-hold
attr source radioChannelChanged
attr title "Radio channel, vector"
vector 6 mobilityDrones.quads[3].wlan[0].radio radioMode:vector ETV
attr interpolationmode sample-hold
attr source radioModeChanged
attr title "Radio mode, vector"
vector 7 mobilityDrones.quads[3].wlan[0].radio radioChannel:vector ETV
attr interpolationmode sample-hold
attr source radioChannelChanged
attr title "Radio channel, vector"
vector 8 mobilityDrones.sensors[0].wlan[0].radio radioMode:vector ETV
attr interpolationmode sample-hold
attr source radioModeChanged
attr title "Radio mode, vector"
vector 9 mobilityDrones.sensors[0].wlan[0].radio radioChannel:vector ETV
attr interpolationmode sample-hold
attr source radioChannelChanged
attr title "Radio channel, vector"
vector 10 mobilityDrones.sensors[1].wlan[0].radio radioMode:vector ETV
attr interpolationmode sample-hold
attr source radioModeChanged
attr title "Radio mode, vector"
vector 11 mobilityDrones.sensors[1].wlan[0].radio radioChannel:vector ETV
attr interpolationmode sample-hold
attr source radioChannelChanged
attr title "Radio channel, vector"
vector 12 mobilityDrones.sensors[2].wlan[0].radio radioMode:vector ETV
attr interpolationmode sample-hold
attr source radioModeChanged
attr title "Radio mode, vector"
vector 13 mobilityDrones.sensors[2].wlan[0].radio radioChannel:vector ETV
attr interpolationmode sample-hold
attr source radioChannelChanged
attr title "Radio channel, vector"
vector 14 mobilityDrones.sensors[3].wlan[0].radio radioMode:vector ETV
attr interpolationmode sample-hold
attr source radioModeChanged
attr title "Radio mode, vector"
vector 15 mobilityDrones.sensors[3].wlan[0].radio radioChannel:vector ETV
attr interpolationmode sample-hold
attr source radioChannelChanged
attr title "Radio channel, vector"
vector 16 mobilityDrones.sensors[4].wlan[0].radio radioMode:vector ETV
attr interpolationmode sample-hold
attr source radioModeChanged
attr title "Radio mode, vector"
vector 17 mobilityDrones.sensors[4].wlan[0].radio radioChannel:vector ETV
attr interpolationmode sample-hold
attr source radioChannelChanged
attr title "Radio channel, vector"
vector 18 mobilityDrones.sensors[5].wlan[0].radio radioMode:vector ETV
attr interpolationmode sample-hold
attr source radioModeChanged
attr title "Radio mode, vector"
vector 19 mobilityDrones.sensors[5].wlan[0].radio radioChannel:vector ETV
attr interpolationmode sample-hold
attr source radioChannelChanged
attr title "Radio channel, vector"
vector 20 mobilityDrones.sensors[6].wlan[0].radio radioMode:vector ETV
attr interpolationmode sample-hold
attr source radioModeChanged
attr title "Radio mode, vector"
vector 21 mobilityDrones.sensors[6].wlan[0].radio radioChannel:vector ETV
attr interpolationmode sample-hold
attr source radioChannelChanged
attr title "Radio channel, vector"
vector 22 mobilityDrones.sensors[7].wlan[0].radio radioMode:vector ETV
attr interpolationmode sample-hold
attr source radioModeChanged
attr title "Radio mode, vector"
vector 23 mobilityDrones.sensors[7].wlan[0].radio radioChannel:vector ETV
attr interpolationmode sample-hold
attr source radioChannelChanged
attr title "Radio channel, vector"
vector 24 mobilityDrones.groundStation.wlan[0].radio radioMode:vector ETV
attr interpolationmode sample-hold
attr source radioModeChanged
attr title "Radio mode, vector"
vector 25 mobilityDrones.groundStation.wlan[0].radio radioChannel:vector ETV
attr interpolationmode sample-hold
attr source radioChannelChanged
attr title "Radio channel, vector"
vector 26 mobilityDrones.quads[0].wlan[0].radio receptionState:vector ETV
attr interpolationmode sample-hold
attr source receptionStateChanged
attr title "Radio reception state, vector"
vector 27 mobilityDrones.quads[1].wlan[0].radio receptionState:vector ETV
attr interpolationmode sample-hold
attr source receptionStateChanged
attr title "Radio reception state, vector"
vector 28 mobilityDrones.quads[2].wlan[0].radio receptionState:vector ETV
attr interpolationmode sample-hold
attr source receptionStateChanged
attr title "Radio reception state, vector"
vector 29 mobilityDrones.quads[3].wlan[0].radio receptionState:vector ETV
attr interpolationmode sample-hold
attr source receptionStateChanged
attr title "Radio reception state, vector"
vector 30 mobilityDrones.sensors[0].wlan[0].radio receptionState:vector ETV
attr interpolationmode sample-hold
attr source receptionStateChanged
attr title "Radio reception state, vector"
vector 31 mobilityDrones.sensors[1].wlan[0].radio receptionState:vector ETV
attr interpolationmode sample-hold
attr source receptionStateChanged
attr title "Radio reception state, vector"
vector 32 mobilityDrones.sensors[2].wlan[0].radio receptionState:vector ETV
attr interpolationmode sample-hold
attr source receptionStateChanged
attr title "Radio reception state, vector"
vector 33 mobilityDrones.sensors[3].wlan[0].radio receptionState:vector ETV
attr interpolationmode sample-hold
attr source receptionStateChanged
attr title "Radio reception state, vector"
vector 34 mobilityDrones.sensors[4].wlan[0].radio receptionState:vector ETV
attr interpolationmode sample-hold
attr source receptionStateChanged
attr title "Radio reception state, vector"
vector 35 mobilityDrones.sensors[5].wlan[0].radio receptionState:vector ETV
attr interpolationmode sample-hold
attr source receptionStateChanged
attr title "Radio reception state, vector"
vector 36 mobilityDrones.sensors[6].wlan[0].radio receptionState:vector ETV
attr interpolationmode sample-hold
attr source receptionStateChanged
attr title "Radio reception state, vector"
vector 37 mobilityDrones.sensors[7].wlan[0].radio receptionState:vector ETV
attr interpolationmode sample-hold
attr source receptionStateChanged
attr title "Radio reception state, vector"
vector 38 mobilityDrones.groundStation.wlan[0].radio receptionState:vector ETV
attr interpolationmode sample-hold
attr source receptionStateChanged
attr title "Radio reception state, vector"
vector 39 mobilityDrones.quads[0].wlan[0].mac.dcf.recoveryProcedure contentionWindowChanged:vector ETV
attr interpolationmode sample-hold
attr title "contention window, vector"
vector 40 mobilityDrones.quads[1].wlan[0].mac.dcf.recoveryProcedure contentionWindowChanged:vector ETV
attr interpolationmode sample-hold
attr title "contention window, vector"
vector 41 mobilityDrones.quads[2].wlan[0].mac.dcf.recoveryProcedure contentionWindowChanged:vector ETV
attr interpolationmode sample-hold
attr title "contention window, vector"
vector 42 mobilityDrones.quads[3].wlan[0].mac.dcf.recoveryProcedure contentionWindowChanged:vector ETV
attr interpolationmode sample-hold
attr title "contention window, vector"
vector 43 mobilityDrones.sensors[0].wlan[0].mac.dcf.recoveryProcedure contentionWindowChanged:vector ETV
attr interpolationmode sample-hold
attr title "contention window, vector"
vector 44 mobilityDrones.sensors[1].wlan[0].mac.dcf.recoveryProcedure contentionWindowChanged:vector ETV
attr interpolationmode sample-hold
attr title "contention window, vector"
vector 45 mobilityDrones.sensors[2].wlan[0].mac.dcf.recoveryProcedure contentionWindowChanged:vector ETV
attr interpolationmode sample-hold
attr title "contention window, vector"
vector 46 mobilityDrones.sensors[3].wlan[0].mac.dcf.recoveryProcedure contentionWindowChanged:vector ETV
attr interpolationmode sample-hold
attr title "contention window, vector"
vector 47 mobilityDrones.sensors[4].wlan[0].mac.dcf.recoveryProcedure contentionWindowChanged:vector ETV
attr interpolationmode sample-hold
attr title "contention window, vector"
vector 48 mobilityDrones.sensors[5].wlan[0].mac.dcf.recoveryProcedure contentionWindowChanged:vector ETV
attr interpolationmode sample-hold
attr title "contention window, vector"
vector 49 mobilityDrones.sensors[6].wlan[0].mac.dcf.recoveryProcedure contentionWindowChanged:vector ETV
attr interpolationmode sample-hold
attr title "contention window, vector"
vector 50 mobilityDrones.sensors[7].wlan[0].mac.dcf.recoveryProcedure contentionWindowChanged:vector ETV
attr interpolationmode sample-hold
attr title "contention window, vector"
vector 51 mobilityDrones.groundStation.wlan[0].mac.dcf.recoveryProcedure contentionWindowChanged:vector ETV
attr interpolationmode sample-hold
attr title "contention window, vector"
vector 52 mobilityDrones.quads[0].app[0] packetSent:vector(packetBytes) ETV
attr interpolationmode none
attr source packetSent
attr title "packets sent, vector(packetBytes)"
vector 53 mobilityDrones.quads[0].udp packetSent:vector(packetBytes) ETV
attr interpolationmode none
attr source packetSent
attr title "packets sent, vector(packetBytes)"
vector 54 mobilityDrones.quads[0].lo[0].lo rcvdPkFromHl:vector(packetBytes) ETV
attr interpolationmode none
attr source packetReceivedFromUpper
attr title "packets received from higher layer, vector(packetBytes)"
vector 55 mobilityDrones.quads[0].lo[0].lo passedUpPk:vector(packetBytes) ETV
attr interpolationmode none
attr source packetSentToUpper
attr title "packets passed to higher layer, vector(packetBytes)"
vector 56 mobilityDrones.quads[0].wlan[0].mac packetReceivedFromUpper:vector(packetBytes) ETV
attr interpolationmode none
attr title "packets received from upper layer, vector(packetBytes)"
vector 57 mobilityDrones.quads[0].wlan[0].mac.dcf.channelAccess.pendingQueue packetPushed:vector(packetBytes) ETV
attr interpolationmode none
attr title "packet pushed, vector(packetBytes)"
vector 58 mobilityDrones.quads[0].wlan[0].mac.dcf.channelAccess.pendingQueue queueLength:vector ETV
attr interpolationmode sample-hold
attr source "count(packetPushed) - count(packetPopped) - count(packetRemoved) - count(packetDropped)"
attr title "queue length, vector"
vector 59 mobilityDrones.quads[0].wlan[0].mac.dcf.channelAccess.contention backoffPeriodGenerated:vector ETV
attr interpolationmode none
attr title "backoff periods, vector"
vector 60 mobilityDrones.quads[0].wlan[0].mac.dcf.channelAccess.contention backoffActive:vector ETV
attr interpolationmode sample-hold
attr source count(backoffStarted)-count(backoffStopped)
attr title "backoff active, vector"
vector 61 mobilityDrones.quads[0].udp packetReceived:vector(packetBytes) ETV
attr interpolationmode none
attr source packetReceived
attr title "packets received, vector(packetBytes)"
vector 62 mobilityDrones.quads[0].udp passedUpPk:vector(count) ETV
attr interpolationmode none
attr source packetSentToUpper
attr title "packets passed up, vector(count)"
vector 63 mobilityDrones.quads[0].wlan[0].mac.dcf.channelAccess.pendingQueue packetPopped:vector(packetBytes) ETV
attr interpolationmode none
attr title "packet popped, vector(packetBytes)"
vector 64 mobilityDrones.quads[0].wlan[0].mac.dcf.channelAccess.pendingQueue queueingTime:vector ETV
attr interpolationmode none
attr source queueingTime(packetPopped)
attr title "queueing times, vector"
attr unit s
vector 65 mobilityDrones.quads[0].wlan[0].mac.dcf.channelAccess.inProgressFrames queueLength:vector ETV
attr interpolationmode sample-hold
attr source "count(packetEnqueued) - count(packetDequeued)"
attr title "queue length, vector"
vector 66 mobilityDrones.quads[0].wlan[0].mac.dcf datarateSelected:vector ETV
attr interpolationmode none
attr title "datarates selected, vector"
vector 67 mobilityDrones.quads[0].wlan[0].mac packetSentToLower:vector(packetBytes) ETV
attr interpolationmode none
attr title "packets sent to lower layer, vector(packetBytes)"
vector 68 mobilityDrones.quads[0].wlan[0].mac.dcf frameSequenceActive:vector ETV
attr interpolationmode sample-hold
attr source count(frameSequenceStarted)-count(frameSequenceFinished)
attr title "frame sequence active, vector"
vector 69 mobilityDrones.quads[0].wlan[0].radio transmissionState:vector ETV
attr interpolationmode sample-hold
attr source transmissionStateChanged
attr title "Radio transmission state, vector"
vector 70 mobilityDrones.quads[0].wlan[0].mac.dcf packetSentToPeer:vector(packetBytes) ETV
attr interpolationmode none
attr title "packets sent, vector(packetBytes)"
vector 71 mobilityDrones.quads[0].wlan[0].mac.dcf packetSentToPeerMulticast:vector(packetBytes) ETV
attr interpolationmode none
attr source ieee80211Multicast(packetSentToPeer)
attr title "packets sent: multicast, vector(packetBytes)"
vector 72 mobilityDrones.quads[0].wlan[0].mac.dcf packetSentToPeerWithoutRetry:vector(packetBytes) ETV
attr interpolationmode none
attr source ieee80211NotRetry(packetSentToPeer)
attr title "packets sent: without retry, vector(packetBytes)"
vector 73 mobilityDrones.quads[0].wlan[0].mac.dcf.channelAccess.inProgressFrames queueingTime:vector ETV
attr interpolationmode none
attr source queueingTime(packetDequeued)
attr title "queueing times, vector"
vector 74 mobilityDrones.quads[1].wlan[0].mac packetReceivedFromLower:vector(packetBytes) ETV
attr interpolationmode none
attr title "packets received from lower layer, vector(packetBytes)"
vector 75 mobilityDrones.quads[1].wlan[0].mac.dcf packetReceivedFromPeer:vector(packetBytes) ETV
attr interpolationmode none
attr title "packets received, vector(packetBytes)"
vector 76 mobilityDrones.quads[1].wlan[0].mac.dcf packetReceivedFromPeerMulticast:vector(packetBytes) ETV
attr interpolationmode none
attr source ieee80211Multicast(packetReceivedFromPeer)
attr title "packets received: multicast, vector(packetBytes)"
vector 77 mobilityDrones.quads[1].wlan[0].mac.dcf packetReceivedFromPeerWithoutRetry:vector(packetBytes) ETV
attr interpolationmode none
attr source ieee80211NotRetry(packetReceivedFromPeer)
attr title "packets received: without retry, vector(packetBytes)"
vector 78 mobilityDrones.quads[1].wlan[0].mac packetSentToUpper:vector(packetBytes) ETV
attr interpolationmode none
attr title "packets sent to upper layer, vector(packetBytes)"
vector 79 mobilityDrones.quads[2].wlan[0].mac packetReceivedFromLower:vector(packetBytes) ETV
attr interpolationmode none
attr title "packets received from lower layer, vector(packetBytes)"
vector 80 mobilityDrones.quads[2].wlan[0].mac.dcf packetReceivedFromPeer:vector(packetBytes) ETV
attr interpolationmode none
attr title "packets received, vector(packetBytes)"
vector 81 mobilityDrones.quads[2].wlan[0].mac.dcf packetReceivedFromPeerMulticast:vector(packetBytes) ETV
attr interpolationmode none
attr source ieee80211Multicast(packetReceivedFromPeer)
attr title "packets received: multicast, vector(packetBytes)"
vector 82 mobilityDrones.quads[2].wlan[0].mac.dcf packetReceivedFromPeerWithoutRetry:vector(packetBytes) ETV
attr interpolationmode none
attr source ieee80211NotRetry(packetReceivedFromPeer)
attr title "packets received: without retry, vector(packetBytes)"
vector 83 mobilityDrones.quads[2].wlan[0].mac packetSentToUpper:vector(packetBytes) ETV
attr interpolationmode none
attr title "packets sent to upper layer, vector(packetBytes)"
vector 84 mobilityDrones.quads[3].wlan[0].mac packetReceivedFromLower:vector(packetBytes) ETV
attr interpolationmode none
attr title "packets received from lower layer, vector(packetBytes)"
vector 85 mobilityDrones.quads[3].wlan[0].mac.dcf packetReceivedFromPeer:vector(packetBytes) ETV
attr interpolationmode none
attr title "packets received, vector(packetBytes)"
vector 86 mobilityDrones.quads[3].wlan[0].mac.dcf packetReceivedFromPeerMulticast:vector(packetBytes) ETV
attr interpolationmode none
attr source ieee80211Multicast(packetReceivedFromPeer)
attr title "packets received: multicast, vector(packetBytes)"
vector 87 mobilityDrones.quads[3].wlan[0].mac.dcf packetReceivedFromPeerWithoutRetry:vector(packetBytes) ETV
attr interpolationmode none
attr source ieee80211NotRetry(packetReceivedFromPeer)
attr title "packets received: without retry, vector(packetBytes)"
vector 88 mobilityDrones.quads[3].wlan[0].mac packetSentToUpper:vector(packetBytes) ETV
attr interpolationmode none
attr title "packets sent to upper layer, vector(packetBytes)"
vector 89 mobilityDrones.groundStation.wlan[0].mac packetReceivedFromLower:vector(packetBytes) ETV
attr interpolationmode none
attr title "packets received from lower layer, vector(packetBytes)"
vector 90 mobilityDrones.groundStation.wlan[0].mac.dcf packetReceivedFromPeer:vector(packetBytes) ETV
attr interpolationmode none
attr title "packets received, vector(packetBytes)"
vector 91 mobilityDrones.groundStation.wlan[0].mac.dcf packetReceivedFromPeerMulticast:vector(packetBytes) ETV
attr interpolationmode none
attr source ieee80211Multicast(packetReceivedFromPeer)
attr title "packets received: multicast, vector(packetBytes)"
vector 92 mobilityDrones.groundStation.wlan[0].mac.dcf packetReceivedFromPeerWithoutRetry:vector(packetBytes) ETV
attr interpolationmode none
attr source ieee80211NotRetry(packetReceivedFromPeer)
attr title "packets received: without retry, vector(packetBytes)"
vector 93 mobilityDrones.groundStation.wlan[0].mac packetSentToUpper:vector(packetBytes) ETV
attr interpolationmode none
attr title "packets sent to upper layer, vector(packetBytes)"
vector 94 mobilityDrones.quads[1].wlan[0].mac packetDrop:vector(packetBytes) ETV
attr interpolationmode none
attr source packetDropped
attr title "packet drops, vector(packetBytes)"
vector 95 mobilityDrones.quads[1].wlan[0].mac packetDropIncorrectlyReceived:vector(packetBytes) ETV
attr interpolationmode none
attr source packetDropReasonIsIncorrectlyReceived(packetDropped)
attr title "packet drops: incorrectly received, vector(packetBytes)"
vector 96 mobilityDrones.quads[1].app[0] packetSent:vector(packetBytes) ETV
attr interpolationmode none
attr source packetSent
attr title "packets sent, vector(packetBytes)"
vector 97 mobilityDrones.quads[1].udp packetSent:vector(packetBytes) ETV
attr interpolationmode none
attr source packetSent
attr title "packets sent, vector(packetBytes)"
vector 98 mobilityDrones.quads[1].lo[0].lo rcvdPkFromHl:vector(packetBytes) ETV
attr interpolationmode none
attr source packetReceivedFromUpper
attr title "packets received from higher layer, vector(packetBytes)"
vector 99 mobilityDrones.quads[1].lo[0].lo passedUpPk:vector(packetBytes) ETV
attr interpolationmode none
attr source packetSentToUpper
attr title "packets passed to higher layer, vector(packetBytes)"
vector 100 mobilityDrones.quads[1].wlan[0].mac packetReceivedFromUpper:vector(packetBytes) ETV
attr interpolationmode none
attr title "packets received from upper layer, vector(packetBytes)"
vector 101 mobilityDrones.quads[1].wlan[0].mac.dcf.channelAccess.pendingQueue packetPushed:vector(packetBytes) ETV
attr interpolationmode none
attr title "packet pushed, vector(packetBytes)"
vector 102 mobilityDrones.quads[1].wlan[0].mac.dcf.channelAccess.pendingQueue queueLength:vector ETV
attr interpolationmode sample-hold
attr source "count(packetPushed) - count(packetPopped) - count(packetRemoved) - count(packetDropped)"
attr title "queue length, vector"
vector 103 mobilityDrones.quads[1].wlan[0].mac.dcf.channelAccess.contention backoffPeriodGenerated:vector ETV
attr interpolationmode none
attr title "backoff periods, vector"
vector 104 mobilityDrones.quads[1].wlan[0].mac.dcf.channelAccess.contention backoffActive:vector ETV
attr interpolationmode sample-hold
attr source count(backoffStarted)-count(backoffStopped)
attr title "backoff active, vector"
vector 105 mobilityDrones.quads[1].udp packetReceived:vector(packetBytes) ETV
attr interpolationmode none
attr source packetReceived
attr title "packets received, vector(packetBytes)"
vector 106 mobilityDrones.quads[1].udp passedUpPk:vector(count) ETV
attr interpolationmode none
attr source packetSentToUpper
attr title "packets passed up, vector(count)"
vector 107 mobilityDrones.quads[1].wlan[0].mac.dcf.channelAccess.pendingQueue packetPopped:vector(packetBytes) ETV
attr interpolationmode none
attr title "packet popped, vector(packetBytes)"
vector 108 mobilityDrones.quads[1].wlan[0].mac.dcf.channelAccess.pendingQueue queueingTime:vector ETV
attr interpolationmode none
attr source queueingTime(packetPopped)
attr title "queueing times, vector"
attr unit s
vector 109 mobilityDrones.quads[1].wlan[0].mac.dcf.channelAccess.inProgressFrames queueLength:vector ETV
attr interpolationmode sample-hold
attr source "count(packetEnqueued) - count(packetDequeued)"
attr title "queue length, vector"
vector 110 mobilityDrones.quads[1].wlan[0].mac.dcf datarateSelected:vector ETV
attr interpolationmode none
attr title "datarates selected, vector"
vector 111 mobilityDrones.quads[1].wlan[0].mac packetSentToLower:vector(packetBytes) ETV
attr interpolationmode none
attr title "packets sent to lower layer, vector(packetBytes)"
vector 112 mobilityDrones.quads[1].wlan[0].mac.dcf frameSequenceActive:vector ETV
attr interpolationmode sample-hold
attr source count(frameSequenceStarted)-count(frameSequenceFinished)
attr title "frame sequence active, vector"
vector 113 mobilityDrones.quads[1].wlan[0].radio transmissionState:vector ETV
attr interpolationmode sample-hold
attr source transmissionStateChanged
attr title "Radio transmission state, vector"
vector 114 mobilityDrones.quads[1].wlan[0].mac.dcf packetSentToPeer:vector(packetBytes) ETV
attr interpolationmode none
attr title "packets sent, vector(packetBytes)"
vector 115 mobilityDrones.quads[1].wlan[0].mac.dcf packetSentToPeerMulticast:vector(packetBytes) ETV
attr interpolationmode none
attr source ieee80211Multicast(packetSentToPeer)
attr title "packets sent: multicast, vector(packetBytes)"
vector 116 mobilityDrones.quads[1].wlan[0].mac.dcf packetSentToPeerWithoutRetry:vector(packetBytes) ETV
attr interpolationmode none
attr source ieee80211NotRetry(packetSentToPeer)
attr title "packets sent: without retry, vector(packetBytes)"
vector 117 mobilityDrones.quads[1].wlan[0].mac.dcf.channelAccess.inProgressFrames queueingTime:vector ETV
attr interpolationmode none
attr source queueingTime(packetDequeued)
attr title "queueing times, vector"
vector 118 mobilityDrones.quads[2].wlan[0].mac packetDrop:vector(packetBytes) ETV
attr interpolationmode none
attr source packetDropped
attr title "packet drops, vector(packetBytes)"
vector 119 mobilityDrones.quads[2].wlan[0].mac packetDropIncorrectlyReceived:vector(packetBytes) ETV
attr interpolationmode none
attr source packetDropReasonIsIncorrectlyReceived(packetDropped)
attr title "packet drops: incorrectly received, vector(packetBytes)"
vector 120 mobilityDrones.groundStation.wlan[0].mac packetDrop:vector(packetBytes) ETV
attr interpolationmode none
attr source packetDropped
attr title "packet drops, vector(packetBytes)"
vector 121 mobilityDrones.groundStation.wlan[0].mac packetDropIncorrectlyReceived:vector(packetBytes) ETV
attr interpolationmode none
attr source packetDropReasonIsIncorrectlyReceived(packetDropped)
attr title "packet drops: incorrectly received, vector(packetBytes)"
vector 122 mobilityDrones.sensors[0].wlan[0].mac packetReceivedFromLower:vector(packetBytes) ETV
attr interpolationmode none
attr title "packets received from lower layer, vector(packetBytes)"
vector 123 mobilityDrones.sensors[0].wlan[0].mac.dcf packetReceivedFromPeer:vector(packetBytes) ETV
attr interpolationmode none
attr title "packets received, vector(packetBytes)"
vector 124 mobilityDrones.sensors[0].wlan[0].mac.dcf packetReceivedFromPeerMulticast:vector(packetBytes) ETV
attr interpolationmode none
attr source ieee80211Multicast(packetReceivedFromPeer)
attr title "packets received: multicast, vector(packetBytes)"
vector 125 mobilityDrones.sensors[0].wlan[0].mac.dcf packetReceivedFromPeerWithoutRetry:vector(packetBytes) ETV
attr interpolationmode none
attr source ieee80211NotRetry(packetReceivedFromPeer)
attr title "packets received: without retry, vector(packetBytes)"
vector 126 mobilityDrones.sensors[0].wlan[0].mac packetSentToUpper:vector(packetBytes) ETV
attr interpolationmode none
attr title "packets sent to upper layer, vector(packetBytes)"
vector 127 mobilityDrones.sensors[0].udp packetReceived:vector(packetBytes) ETV
attr interpolationmode none
attr source packetReceived
attr title "packets received, vector(packetBytes)"
vector 128 mobilityDrones.sensors[0].udp passedUpPk:vector(count) ETV
attr interpolationmode none
attr source packetSentToUpper
attr title "packets passed up, vector(count)"
vector 129 mobilityDrones.sensors[0].app[0] packetReceived:vector(packetBytes) ETV
attr interpolationmode none
attr source packetReceived
attr title "packets received, vector(packetBytes)"
vector 130 mobilityDrones.sensors[0].app[0] throughput:vector ETV
attr source throughput(packetReceived)
attr title "throughput, vector"
attr unit bps
vector 131 mobilityDrones.sensors[0].app[0] rcvdPkLifetime:vector ETV
attr interpolationmode none
attr source dataAge(packetReceived)
attr title "received packet lifetime, vector"
attr unit s
vector 132 mobilityDrones.sensors[0].app[0] packetSent:vector(packetBytes) ETV
attr interpolationmode none
attr source packetSent
attr title "packets sent, vector(packetBytes)"
vector 133 mobilityDrones.sensors[0].udp packetSent:vector(packetBytes) ETV
attr interpolationmode none
attr source packetSent
attr title "packets sent, vector(packetBytes)"
vector 134 mobilityDrones.sensors[0].ipv4.arp arpRequestSent:vector(packetBytes) ETV
attr source arpRequestSent
attr title "ARP request sent, vector(packetBytes)"
vector 135 mobilityDrones.sensors[0].wlan[0].mac packetReceivedFromUpper:vector(packetBytes) ETV
attr interpolationmode none
attr title "packets received from upper layer, vector(packetBytes)"
vector 136 mobilityDrones.sensors[0].wlan[0].mac.dcf.channelAccess.pendingQueue packetPushed:vector(packetBytes) ETV
attr interpolationmode none
attr title "packet pushed, vector(packetBytes)"
vector 137 mobilityDrones.sensors[0].wlan[0].mac.dcf.channelAccess.pendingQueue queueLength:vector ETV
attr interpolationmode sample-hold
attr source "count(packetPushed) - count(packetPopped) - count(packetRemoved) - count(packetDropped)"
attr title "queue length, vector"
vector 138 mobilityDrones.sensors[0].wlan[0].mac.dcf.channelAccess.contention backoffPeriodGenerated:vector ETV
attr interpolationmode none
attr title "backoff periods, vector"
vector 139 mobilityDrones.sensors[0].wlan[0].mac.dcf.channelAccess.contention backoffActive:vector ETV
attr interpolationmode sample-hold
attr source count(backoffStarted)-count(backoffStopped)
attr title "backoff active, vector"
vector 140 mobilityDrones.sensors[0].wlan[0].mac.dcf.channelAccess.pendingQueue packetPopped:vector(packetBytes) ETV
attr interpolationmode none
attr title "packet popped, vector(packetBytes)"
vector 141 mobilityDrones.sensors[0].wlan[0].mac.dcf.channelAccess.pendingQueue queueingTime:vector ETV
attr interpolationmode none
attr source queueingTime(packetPopped)
attr title "queueing times, vector"
attr unit s
vector 142 mobilityDrones.sensors[0].wlan[0].mac.dcf.channelAccess.inProgressFrames queueLength:vector ETV
attr interpolationmode sample-hold
attr source "count(packetEnqueued) - count(packetDequeued)"
attr title "queue length, vector"
vector 143 mobilityDrones.sensors[0].wlan[0].mac.dcf datarateSelected:vector ETV
attr interpolationmode none
attr title "datarates selected, vector"
vector 144 mobilityDrones.sensors[0].wlan[0].mac packetSentToLower:vector(packetBytes) ETV
attr interpolationmode none
attr title "packets sent to lower layer, vector(packetBytes)"
vector 145 mobilityDrones.sensors[0].wlan[0].mac.dcf frameSequenceActive:vector ETV
attr interpolationmode sample-hold
attr source count(frameSequenceStarted)-count(frameSequenceFinished)
attr title "frame sequence active, vector"
vector 146 mobilityDrones.sensors[0].wlan[0].radio transmissionState:vector ETV
attr interpolationmode sample-hold
attr source transmissionStateChanged
attr title "Radio transmission state, vector"
vector 147 mobilityDrones.sensors[0].wlan[0].mac.dcf packetSentToPeer:vector(packetBytes) ETV
attr interpolationmode none
attr title "packets sent, vector(packetBytes)"
vector 148 mobilityDrones.sensors[0].wlan[0].mac.dcf packetSentToPeerMulticast:vector(packetBytes) ETV
attr interpolationmode none
attr source ieee80211Multicast(packetSentToPeer)
attr title "packets sent: multicast, vector(packetBytes)"
vector 149 mobilityDrones.sensors[0].wlan[0].mac.dcf packetSentToPeerBroadcast:vector(packetBytes) ETV
attr interpolationmode none
attr source ieee80211Broadcast(packetSentToPeer)
attr title "packets sent: broadcast , vector(packetBytes)"
vector 150 mobilityDrones.sensors[0].wlan[0].mac.dcf packetSentToPeerWithoutRetry:vector(packetBytes) ETV
attr interpolationmode none
attr source ieee80211NotRetry(packetSentToPeer)
attr title "packets sent: without retry, vector(packetBytes)"
vector 151 mobilityDrones.sensors[0].wlan[0].mac.dcf.channelAccess.inProgressFrames queueingTime:vector ETV
attr interpolationmode none
attr source queueingTime(packetDequeued)
attr title "queueing times, vector"
vector 152 mobilityDrones.quads[0].wlan[0].mac packetReceivedFromLower:vector(packetBytes) ETV
attr interpolationmode none
attr title "packets received from lower layer, vector(packetBytes)"
vector 153 mobilityDrones.quads[0].wlan[0].mac packetDrop:vector(packetBytes) ETV
attr interpolationmode none
attr source packetDropped
attr title "packet drops, vector(packetBytes)"
vector 154 mobilityDrones.quads[0].wlan[0].mac packetDropIncorrectlyReceived:vector(packetBytes) ETV
attr interpolationmode none
attr source packetDropReasonIsIncorrectlyReceived(packetDropped)
attr title "packet drops: incorrectly received, vector(packetBytes)"
vector 155 mobilityDrones.quads[0].wlan[0].mac.dcf packetReceivedFromPeer:vector(packetBytes) ETV
attr interpolationmode none
attr title "packets received, vector(packetBytes)"
vector 156 mobilityDrones.quads[0].wlan[0].mac.dcf packetReceivedFromPeerMulticast:vector(packetBytes) ETV
attr interpolationmode none
attr source ieee80211Multicast(packetReceivedFromPeer)
attr title "packets received: multicast, vector(packetBytes)"
vector 157 mobilityDrones.quads[0].wlan[0].mac.dcf packetReceivedFromPeerBroadcast:vector(packetBytes) ETV
attr interpolationmode none
attr source ieee80211Broadcast(packetReceivedFromPeer)
attr title "packets received: broadcast, vector(packetBytes)"
vector 158 mobilityDrones.quads[0].wlan[0].mac.dcf packetReceivedFromPeerWithoutRetry:vector(packetBytes) ETV
attr interpolationmode none
attr source ieee80211NotRetry(packetReceivedFromPeer)
attr title "packets received: without retry, vector(packetBytes)"
vector 159 mobilityDrones.quads[0].wlan[0].mac packetSentToUpper:vector(packetBytes) ETV
attr interpolationmode none
attr title "packets sent to upper layer, vector(packetBytes)"
vector 160 mobilityDrones.quads[0].ipv4.arp arpReplySent:vector(packetBytes) ETV
attr source arpReplySent
attr title "ARP replies sent, vector(packetBytes)"
vector 161 mobilityDrones.quads[0].wlan[0].mac.dcf packetSentToPeerUnicast:vector(packetBytes) ETV
attr interpolationmode none
attr source ieee80211Unicast(packetSentToPeer)
attr title "packets sent: unicast, vector(packetBytes)"
vector 162 mobilityDrones.quads[0].wlan[0].mac.rx nav:vector ETV
attr interpolationmode linear
attr source navChanged
attr title "network allocation vector, vector"
vector 163 mobilityDrones.sensors[0].wlan[0].mac.dcf packetReceivedFromPeerUnicast:vector(packetBytes) ETV
attr interpolationmode none
attr source ieee80211Unicast(packetReceivedFromPeer)
attr title "packets received: unicast, vector(packetBytes)"
vector 164 mobilityDrones.sensors[0].wlan[0].mac.dcf packetSentToPeerUnicast:vector(packetBytes) ETV
attr interpolationmode none
attr source ieee80211Unicast(packetSentToPeer)
attr title "packets sent: unicast, vector(packetBytes)"
vector 165 mobilityDrones.quads[0].wlan[0].mac.dcf packetReceivedFromPeerUnicast:vector(packetBytes) ETV
attr interpolationmode none
attr source ieee80211Unicast(packetReceivedFromPeer)
attr title "packets received: unicast, vector(packetBytes)"
vector 166 mobilityDrones.sensors[0].wlan[0].mac.rx nav:vector ETV
attr interpolationmode linear
attr source navChanged
attr title "network allocation vector, vector"
vector 167 mobilityDrones.quads[0].app[0] packetReceived:vector(packetBytes) ETV
attr interpolationmode none
attr source packetReceived
attr title "packets received, vector(packetBytes)"
vector 168 mobilityDrones.quads[0].app[0] throughput:vector ETV
attr source throughput(packetReceived)
attr title "throughput, vector"
attr unit bps
vector 169 mobilityDrones.quads[0].app[0] rcvdPkLifetime:vector ETV
attr interpolationmode none
attr source dataAge(packetReceived)
attr title "received packet lifetime, vector"
attr unit s
vector 170 mobilityDrones.quads[2].app[0] packetSent:vector(packetBytes) ETV
attr interpolationmode none
attr source packetSent
attr title "packets sent, vector(packetBytes)"
vector 171 mobilityDrones.quads[2].udp packetSent:vector(packetBytes) ETV
attr interpolationmode none
attr source packetSent
attr title "packets sent, vector(packetBytes)"
vector 172 mobilityDrones.quads[2].lo[0].lo rcvdPkFromHl:vector(packetBytes) ETV
attr interpolationmode none
attr source packetReceivedFromUpper
attr title "packets received from higher layer, vector(packetBytes)"
vector 173 mobilityDrones.quads[2].lo[0].lo passedUpPk:vector(packetBytes) ETV
attr interpolationmode none
attr source packetSentToUpper
attr title "packets passed to higher layer, vector(packetBytes)"
vector 174 mobilityDrones.quads[2].wlan[0].mac packetReceivedFromUpper:vector(packetBytes) ETV
attr interpolationmode none
attr title "packets received from upper layer, vector(packetBytes)"
vector 175 mobilityDrones.quads[2].wlan[0].mac.dcf.channelAccess.pendingQueue packetPushed:vector(packetBytes) ETV
attr interpolationmode none
attr title "packet pushed, vector(packetBytes)"
vector 176 mobilityDrones.quads[2].wlan[0].mac.dcf.channelAccess.pendingQueue queueLength:vector ETV
attr interpolationmode sample-hold
attr source "count(packetPushed) - count(packetPopped) - count(packetRemoved) - count(packetDropped)"
attr title "queue length, vector"
vector 177 mobilityDrones.quads[2].wlan[0].mac.dcf.channelAccess.contention backoffPeriodGenerated:vector ETV
attr interpolationmode none
attr title "backoff periods, vector"
vector 178 mobilityDrones.quads[2].wlan[0].mac.dcf.channelAccess.contention backoffActive:vector ETV
attr interpolationmode sample-hold
attr source count(backoffStarted)-count(backoffStopped)
attr title "backoff active, vector"
vector 179 mobilityDrones.quads[2].udp packetReceived:vector(packetBytes) ETV
attr interpolationmode none
attr source packetReceived
attr title "packets received, vector(packetBytes)"
vector 180 mobilityDrones.quads[2].udp passedUpPk:vector(count) ETV
attr interpolationmode none
attr source packetSentToUpper
attr title "packets passed up, vector(count)"
vector 181 mobilityDrones.quads[2].wlan[0].mac.dcf.channelAccess.pendingQueue packetPopped:vector(packetBytes) ETV
attr interpolationmode none
attr title "packet popped, vector(packetBytes)"
vector 182 mobilityDrones.quads[2].wlan[0].mac.dcf.channelAccess.pendingQueue queueingTime:vector ETV
attr interpolationmode none
attr source queueingTime(packetPopped)
attr title "queueing times, vector"
attr unit s
vector 183 mobilityDrones.quads[2].wlan[0].mac.dcf.channelAccess.inProgressFrames queueLength:vector ETV
attr interpolationmode sample-hold
attr source "count(packetEnqueued) - count(packetDequeued)"
attr title "queue length, vector"
vector 184 mobilityDrones.quads[2].wlan[0].mac.dcf datarateSelected:vector ETV
attr interpolationmode none
attr title "datarates selected, vector"
vector 185 mobilityDrones.quads[2].wlan[0].mac packetSentToLower:vector(packetBytes) ETV
attr interpolationmode none
attr title "packets sent to lower layer, vector(packetBytes)"
vector 186 mobilityDrones.quads[2].wlan[0].mac.dcf frameSequenceActive:vector ETV
attr interpolationmode sample-hold
attr source count(frameSequenceStarted)-count(frameSequenceFinished)
attr title "frame sequence active, vector"
vector 187 mobilityDrones.quads[2].wlan[0].radio transmissionState:vector ETV
attr interpolationmode sample-hold
attr source transmissionStateChanged
attr title "Radio transmission state, vector"
vector 188 mobilityDrones.quads[2].wlan[0].mac.dcf packetSentToPeer:vector(packetBytes) ETV
attr interpolationmode none
attr title "packets sent, vector(packetBytes)"
vector 189 mobilityDrones.quads[2].wlan[0].mac.dcf packetSentToPeerMulticast:vector(packetBytes) ETV
attr interpolationmode none
attr source ieee80211Multicast(packetSentToPeer)
attr title "packets sent: multicast, vector(packetBytes)"
vector 190 mobilityDrones.quads[2].wlan[0].mac.dcf packetSentToPeerWithoutRetry:vector(packetBytes) ETV
attr interpolationmode none
attr source ieee80211NotRetry(packetSentToPeer)
attr title "packets sent: without retry, vector(packetBytes)"
vector 191 mobilityDrones.quads[2].wlan[0].mac.dcf.channelAccess.inProgressFrames queueingTime:vector ETV
attr interpolationmode none
attr source queueingTime(packetDequeued)
attr title "queueing times, vector"
vector 192 mobilityDrones.quads[3].wlan[0].mac packetDrop:vector(packetBytes) ETV
attr interpolationmode none
attr source packetDropped
attr title "packet drops, vector(packetBytes)"
vector 193 mobilityDrones.quads[3].wlan[0].mac packetDropIncorrectlyReceived:vector(packetBytes) ETV
attr interpolationmode none
attr source packetDropReasonIsIncorrectlyReceived(packetDropped)
attr title "packet drops: incorrectly received, vector(packetBytes)"
vector 194 mobilityDrones.sensors[1].wlan[0].mac packetReceivedFromLower:vector(packetBytes) ETV
attr interpolationmode none
attr title "packets received from lower layer, vector(packetBytes)"
vector 195 mobilityDrones.sensors[1].wlan[0].mac packetDrop:vector(packetBytes) ETV
attr interpolationmode none
attr source packetDropped
attr title "packet drops, vector(packetBytes)"
vector 196 mobilityDrones.sensors[1].wlan[0].mac packetDropIncorrectlyReceived:vector(packetBytes) ETV
attr interpolationmode none
attr source packetDropReasonIsIncorrectlyReceived(packetDropped)
attr title "packet drops: incorrectly received, vector(packetBytes)"
vector 197 mobilityDrones.quads[3].app[0] packetSent:vector(packetBytes) ETV
attr interpolationmode none
attr source packetSent
attr title "packets sent, vector(packetBytes)"
vector 198 mobilityDrones.quads[3].udp packetSent:vector(packetBytes) ETV
attr interpolationmode none
attr source packetSent
attr title "packets sent, vector(packetBytes)"
vector 199 mobilityDrones.quads[3].lo[0].lo rcvdPkFromHl:vector(packetBytes) ETV
attr interpolationmode none
attr source packetReceivedFromUpper
attr title "packets received from higher layer, vector(packetBytes)"
vector 200 mobilityDrones.quads[3].lo[0].lo passedUpPk:vector(packetBytes) ETV
attr interpolationmode none
attr source packetSentToUpper
attr title "packets passed to higher layer, vector(packetBytes)"
vector 201 mobilityDrones.quads[3].wlan[0].mac packetReceivedFromUpper:vector(packetBytes) ETV
attr interpolationmode none
attr title "packets received from upper layer, vector(packetBytes)"
vector 202 mobilityDrones.quads[3].wlan[0].mac.dcf.channelAccess.pendingQueue packetPushed:vector(packetBytes) ETV
attr interpolationmode none
attr title "packet pushed, vector(packetBytes)"
vector 203 mobilityDrones.quads[3].wlan[0].mac.dcf.channelAccess.pendingQueue queueLength:vector ETV
attr interpolationmode sample-hold
attr source "count(packetPushed) - count(packetPopped) - count(packetRemoved) - count(packetDropped)"
attr title "queue length, vector"
vector 204 mobilityDrones.quads[3].wlan[0].mac.dcf.channelAccess.contention backoffPeriodGenerated:vector ETV
attr interpolationmode none
attr title "backoff periods, vector"
vector 205 mobilityDrones.quads[3].wlan[0].mac.dcf.channelAccess.contention backoffActive:vector ETV
attr interpolationmode sample-hold
attr source count(backoffStarted)-count(backoffStopped)
attr title "backoff active, vector"
vector 206 mobilityDrones.quads[3].udp packetReceived:vector(packetBytes) ETV
attr interpolationmode none
attr source packetReceived
attr title "packets received, vector(packetBytes)"
vector 207 mobilityDrones.quads[3].udp passedUpPk:vector(count) ETV
attr interpolationmode none
attr source packetSentToUpper
attr title "packets passed up, vector(count)"
vector 208 mobilityDrones.quads[3].wlan[0].mac.dcf.channelAccess.pendingQueue packetPopped:vector(packetBytes) ETV
attr interpolationmode none
attr title "packet popped, vector(packetBytes)"
vector 209 mobilityDrones.quads[3].wlan[0].mac.dcf.channelAccess.pendingQueue queueingTime:vector ETV
attr interpolationmode none
attr source queueingTime(packetPopped)
attr title "queueing times, vector"
attr unit s
vector 210 mobilityDrones.quads[3].wlan[0].mac.dcf.channelAccess.inProgressFrames queueLength:vector ETV
attr interpolationmode sample-hold
attr source "count(packetEnqueued) - count(packetDequeued)"
attr title "queue length, vector"
vector 211 mobilityDrones.quads[3].wlan[0].mac.dcf datarateSelected:vector ETV
attr interpolationmode none
attr title "datarates selected, vector"
vector 212 mobilityDrones.quads[3].wlan[0].mac packetSentToLower:vector(packetBytes) ETV
attr interpolationmode none
attr title "packets sent to lower layer, vector(packetBytes)"
vector 213 mobilityDrones.quads[3].wlan[0].mac.dcf frameSequenceActive:vector ETV
attr interpolationmode sample-hold
attr source count(frameSequenceStarted)-count(frameSequenceFinished)
attr title "frame sequence active, vector"
vector 214 mobilityDrones.quads[3].wlan[0].radio transmissionState:vector ETV
attr interpolationmode sample-hold
attr source transmissionStateChanged
attr title "Radio transmission state, vector"
vector 215 mobilityDrones.quads[3].wlan[0].mac.dcf packetSentToPeer:vector(packetBytes) ETV
attr interpolationmode none
attr title "packets sent, vector(packetBytes)"
vector 216 mobilityDrones.quads[3].wlan[0].mac.dcf packetSentToPeerMulticast:vector(packetBytes) ETV
attr interpolationmode none
attr source ieee80211Multicast(packetSentToPeer)
attr title "packets sent: multicast, vector(packetBytes)"
vector 217 mobilityDrones.quads[3].wlan[0].mac.dcf packetSentToPeerWithoutRetry:vector(packetBytes) ETV
attr interpolationmode none
attr source ieee80211NotRetry(packetSentToPeer)
attr title "packets sent: without retry, vector(packetBytes)"
vector 218 mobilityDrones.quads[3].wlan[0].mac.dcf.channelAccess.inProgressFrames queueingTime:vector ETV
attr interpolationmode none
attr source queueingTime(packetDequeued)
attr title "queueing times, vector"
vector 219 mobilityDrones.sensors[1].wlan[0].mac.dcf packetReceivedFromPeer:vector(packetBytes) ETV
attr interpolationmode none
attr title "packets received, vector(packetBytes)"
vector 220 mobilityDrones.sensors[1].wlan[0].mac.dcf packetReceivedFromPeerMulticast:vector(packetBytes) ETV
attr interpolationmode none
attr source ieee80211Multicast(packetReceivedFromPeer)
attr title "packets received: multicast, vector(packetBytes)"
vector 221 mobilityDrones.sensors[1].wlan[0].mac.dcf packetReceivedFromPeerWithoutRetry:vector(packetBytes) ETV
attr interpolationmode none
attr source ieee80211NotRetry(packetReceivedFromPeer)
attr title "packets received: without retry, vector(packetBytes)"
vector 222 mobilityDrones.sensors[1].wlan[0].mac packetSentToUpper:vector(packetBytes) ETV
attr interpolationmode none
attr title "packets sent to upper layer, vector(packetBytes)"
vector 223 mobilityDrones.sensors[1].udp packetReceived:vector(packetBytes) ETV
attr interpolationmode none
attr source packetReceived
attr title "packets received, vector(packetBytes)"
vector 224 mobilityDrones.sensors[1].udp passedUpPk:vector(count) ETV
attr interpolationmode none
attr source packetSentToUpper
attr title "packets passed up, vector(count)"
vector 225 mobilityDrones.sensors[1].app[0] packetReceived:vector(packetBytes) ETV
attr interpolationmode none
attr source packetReceived
attr title "packets received, vector(packetBytes)"
vector 226 mobilityDrones.sensors[1].app[0] throughput:vector ETV
attr source throughput(packetReceived)
attr title "throughput, vector"
attr unit bps
vector 227 mobilityDrones.sensors[1].app[0] rcvdPkLifetime:vector ETV
attr interpolationmode none
attr source dataAge(packetReceived)
attr title "received packet lifetime, vector"
attr unit s
vector 228 mobilityDrones.sensors[1].app[0] packetSent:vector(packetBytes) ETV
attr interpolationmode none
attr source packetSent
attr title "packets sent, vector(packetBytes)"
vector 229 mobilityDrones.sensors[1].udp packetSent:vector(packetBytes) ETV
attr interpolationmode none
attr source packetSent
attr title "packets sent, vector(packetBytes)"
vector 230 mobilityDrones.sensors[1].ipv4.arp arpRequestSent:vector(packetBytes) ETV
attr source arpRequestSent
attr title "ARP request sent, vector(packetBytes)"
vector 231 mobilityDrones.sensors[1].wlan[0].mac packetReceivedFromUpper:vector(packetBytes) ETV
attr interpolationmode none
attr title "packets received from upper layer, vector(packetBytes)"
vector 232 mobilityDrones.sensors[1].wlan[0].mac.dcf.channelAccess.pendingQueue packetPushed:vector(packetBytes) ETV
attr interpolationmode none
attr title "packet pushed, vector(packetBytes)"
vector 233 mobilityDrones.sensors[1].wlan[0].mac.dcf.channelAccess.pendingQueue queueLength:vector ETV
attr interpolationmode sample-hold
attr source "count(packetPushed) - count(packetPopped) - count(packetRemoved) - count(packetDropped)"
attr title "queue length, vector"
vector 234 mobilityDrones.sensors[1].wlan[0].mac.dcf.channelAccess.contention backoffPeriodGenerated:vector ETV
attr interpolationmode none
attr title "backoff periods, vector"
vector 235 mobilityDrones.sensors[1].wlan[0].mac.dcf.channelAccess.contention backoffActive:vector ETV
attr interpolationmode sample-hold
attr source count(backoffStarted)-count(backoffStopped)
attr title "backoff active, vector"
vector 236 mobilityDrones.sensors[1].wlan[0].mac.dcf.channelAccess.pendingQueue packetPopped:vector(packetBytes) ETV
attr interpolationmode none
attr title "packet popped, vector(packetBytes)"
vector 237 mobilityDrones.sensors[1].wlan[0].mac.dcf.channelAccess.pendingQueue queueingTime:vector ETV
attr interpolationmode none
attr source queueingTime(packetPopped)
attr title "queueing times, vector"
attr unit s
vector 238 mobilityDrones.sensors[1].wlan[0].mac.dcf.channelAccess.inProgressFrames queueLength:vector ETV
attr interpolationmode sample-hold
attr source "count(packetEnqueued) - count(packetDequeued)"
attr title "queue length, vector"
vector 239 mobilityDrones.sensors[1].wlan[0].mac.dcf datarateSelected:vector ETV
attr interpolationmode none
attr title "datarates selected, vector"
vector 240 mobilityDrones.sensors[1].wlan[0].mac packetSentToLower:vector(packetBytes) ETV
attr interpolationmode none
attr title "packets sent to lower layer, vector(packetBytes)"
vector 241 mobilityDrones.sensors[1].wlan[0].mac.dcf frameSequenceActive:vector ETV
attr interpolationmode sample-hold
attr source count(frameSequenceStarted)-count(frameSequenceFinished)
attr title "frame sequence active, vector"
vector 242 mobilityDrones.sensors[1].wlan[0].radio transmissionState:vector ETV
attr interpolationmode sample-hold
attr source transmissionStateChanged
attr title "Radio transmission state, vector"
vector 243 mobilityDrones.sensors[1].wlan[0].mac.dcf packetSentToPeer:vector(packetBytes) ETV
attr interpolationmode none
attr title "packets sent, vector(packetBytes)"
vector 244 mobilityDrones.sensors[1].wlan[0].mac.dcf packetSentToPeerMulticast:vector(packetBytes) ETV
attr interpolationmode none
attr source ieee80211Multicast(packetSentToPeer)
attr title "packets sent: multicast, vector(packetBytes)"
vector 245 mobilityDrones.sensors[1].wlan[0].mac.dcf packetSentToPeerBroadcast:vector(packetBytes) ETV
attr interpolationmode none
attr source ieee80211Broadcast(packetSentToPeer)
attr title "packets sent: broadcast , vector(packetBytes)"
vector 246 mobilityDrones.sensors[1].wlan[0].mac.dcf packetSentToPeerWithoutRetry:vector(packetBytes) ETV
attr interpolationmode none
attr source ieee80211NotRetry(packetSentToPeer)
attr title "packets sent: without retry, vector(packetBytes)"
vector 247 mobilityDrones.sensors[1].wlan[0].mac.dcf.channelAccess.inProgressFrames queueingTime:vector ETV
attr interpolationmode none
attr source queueingTime(packetDequeued)
attr title "queueing times, vector"
vector 248 mobilityDrones.sensors[3].wlan[0].mac packetReceivedFromLower:vector(packetBytes) ETV
attr interpolationmode none
attr title "packets received from lower layer, vector(packetBytes)"
vector 249 mobilityDrones.sensors[3].wlan[0].mac packetDrop:vector(packetBytes) ETV
attr interpolationmode none
attr source packetDropped
attr title "packet drops, vector(packetBytes)"
vector 250 mobilityDrones.sensors[3].wlan[0].mac packetDropIncorrectlyReceived:vector(packetBytes) ETV
attr interpolationmode none
attr source packetDropReasonIsIncorrectlyReceived(packetDropped)
attr title "packet drops: incorrectly received, vector(packetBytes)"
vector 251 mobilityDrones.sensors[1].wlan[0].mac.dcf packetReceivedFromPeerUnicast:vector(packetBytes) ETV
attr interpolationmode none
attr source ieee80211Unicast(packetReceivedFromPeer)
attr title "packets received: unicast, vector(packetBytes)"
vector 252 mobilityDrones.sensors[1].wlan[0].mac.dcf packetSentToPeerUnicast:vector(packetBytes) ETV
attr interpolationmode none
attr source ieee80211Unicast(packetSentToPeer)
attr title "packets sent: unicast, vector(packetBytes)"
vector 253 mobilityDrones.sensors[3].wlan[0].mac.dcf packetDrop:vector(packetBytes) ETV
attr interpolationmode none
attr source packetDropped
attr title "packet drops, vector(packetBytes)"
vector 254 mobilityDrones.sensors[3].wlan[0].mac.dcf packetDropNotAddressedToUs:vector(packetBytes) ETV
attr interpolationmode none
attr source packetDropReasonIsNotAddressedToUs(packetDropped)
attr title "packet drops: not addressed to us, vector(packetBytes)"
vector 255 mobilityDrones.sensors[3].wlan[0].mac packetDropNotAddressedToUs:vector(packetBytes) ETV
attr interpolationmode none
attr source packetDropReasonIsNotAddressedToUs(packetDropped)
attr title "packet drops: not addressed to us, vector(packetBytes)"
vector 256 mobilityDrones.sensors[1].wlan[0].mac.rx nav:vector ETV
attr interpolationmode linear
attr source navChanged
attr title "network allocation vector, vector"
vector 257 mobilityDrones.sensors[3].wlan[0].mac.dcf packetReceivedFromPeer:vector(packetBytes) ETV
attr interpolationmode none
attr title "packets received, vector(packetBytes)"
vector 258 mobilityDrones.sensors[3].wlan[0].mac.dcf packetReceivedFromPeerMulticast:vector(packetBytes) ETV
attr interpolationmode none
attr source ieee80211Multicast(packetReceivedFromPeer)
attr title "packets received: multicast, vector(packetBytes)"
vector 259 mobilityDrones.sensors[3].wlan[0].mac.dcf packetReceivedFromPeerWithoutRetry:vector(packetBytes) ETV
attr interpolationmode none
attr source ieee80211NotRetry(packetReceivedFromPeer)
attr title "packets received: without retry, vector(packetBytes)"
vector 260 mobilityDrones.sensors[3].wlan[0].mac packetSentToUpper:vector(packetBytes) ETV
attr interpolationmode none
attr title "packets sent to upper layer, vector(packetBytes)"
vector 261 mobilityDrones.sensors[3].udp packetReceived:vector(packetBytes) ETV
attr interpolationmode none
attr source packetReceived
attr title "packets received, vector(packetBytes)"
vector 262 mobilityDrones.sensors[3].udp passedUpPk:vector(count) ETV
attr interpolationmode none
attr source packetSentToUpper
attr title "packets passed up, vector(count)"
vector 263 mobilityDrones.sensors[3].app[0] packetReceived:vector(packetBytes) ETV
attr interpolationmode none
attr source packetReceived
attr title "packets received, vector(packetBytes)"
vector 264 mobilityDrones.sensors[3].app[0] throughput:vector ETV
attr source throughput(packetReceived)
attr title "throughput, vector"
attr unit bps
vector 265 mobilityDrones.sensors[3].app[0] rcvdPkLifetime:vector ETV
attr interpolationmode none
attr source dataAge(packetReceived)
attr title "received packet lifetime, vector"
attr unit s
vector 266 mobilityDrones.sensors[3].app[0] packetSent:vector(packetBytes) ETV
attr interpolationmode none
attr source packetSent
attr title "packets sent, vector(packetBytes)"
vector 267 mobilityDrones.sensors[3].udp packetSent:vector(packetBytes) ETV
attr interpolationmode none
attr source packetSent
attr title "packets sent, vector(packetBytes)"
vector 268 mobilityDrones.sensors[3].ipv4.arp arpRequestSent:vector(packetBytes) ETV
attr source arpRequestSent
attr title "ARP request sent, vector(packetBytes)"
vector 269 mobilityDrones.sensors[3].wlan[0].mac packetReceivedFromUpper:vector(packetBytes) ETV
attr interpolationmode none
attr title "packets received from upper layer, vector(packetBytes)"
vector 270 mobilityDrones.sensors[3].wlan[0].mac.dcf.channelAccess.pendingQueue packetPushed:vector(packetBytes) ETV
attr interpolationmode none
attr title "packet pushed, vector(packetBytes)"
vector 271 mobilityDrones.sensors[3].wlan[0].mac.dcf.channelAccess.pendingQueue queueLength:vector ETV
attr interpolationmode sample-hold
attr source "count(packetPushed) - count(packetPopped) - count(packetRemoved) - count(packetDropped)"
attr title "queue length, vector"
vector 272 mobilityDrones.sensors[3].wlan[0].mac.dcf.channelAccess.contention backoffPeriodGenerated:vector ETV
attr interpolationmode none
attr title "backoff periods, vector"
vector 273 mobilityDrones.sensors[3].wlan[0].mac.dcf.channelAccess.contention backoffActive:vector ETV
attr interpolationmode sample-hold
attr source count(backoffStarted)-count(backoffStopped)
attr title "backoff active, vector"
vector 274 mobilityDrones.sensors[3].wlan[0].mac.dcf.channelAccess.pendingQueue packetPopped:vector(packetBytes) ETV
attr interpolationmode none
attr title "packet popped, vector(packetBytes)"
vector 275 mobilityDrones.sensors[3].wlan[0].mac.dcf.channelAccess.pendingQueue queueingTime:vector ETV
attr interpolationmode none
attr source queueingTime(packetPopped)
attr title "queueing times, vector"
attr unit s
vector 276 mobilityDrones.sensors[3].wlan[0].mac.dcf.channelAccess.inProgressFrames queueLength:vector ETV
attr interpolationmode sample-hold
attr source "count(packetEnqueued) - count(packetDequeued)"
attr title "queue length, vector"
vector 277 mobilityDrones.sensors[3].wlan[0].mac.dcf datarateSelected:vector ETV
attr interpolationmode none
attr title "datarates selected, vector"
vector 278 mobilityDrones.sensors[3].wlan[0].mac packetSentToLower:vector(packetBytes) ETV
attr interpolationmode none
attr title "packets sent to lower layer, vector(packetBytes)"
vector 279 mobilityDrones.sensors[3].wlan[0].mac.dcf frameSequenceActive:vector ETV
attr interpolationmode sample-hold
attr source count(frameSequenceStarted)-count(frameSequenceFinished)
attr title "frame sequence active, vector"
vector 280 mobilityDrones.sensors[3].wlan[0].radio transmissionState:vector ETV
attr interpolationmode sample-hold
attr source transmissionStateChanged
attr title "Radio transmission state, vector"
vector 281 mobilityDrones.sensors[3].wlan[0].mac.dcf packetSentToPeer:vector(packetBytes) ETV
attr interpolationmode none
attr title "packets sent, vector(packetBytes)"
vector 282 mobilityDrones.sensors[3].wlan[0].mac.dcf packetSentToPeerMulticast:vector(packetBytes) ETV
attr interpolationmode none
attr source ieee80211Multicast(packetSentToPeer)
attr title "packets sent: multicast, vector(packetBytes)"
vector 283 mobilityDrones.sensors[3].wlan[0].mac.dcf packetSentToPeerBroadcast:vector(packetBytes) ETV
attr interpolationmode none
attr source ieee80211Broadcast(packetSentToPeer)
attr title "packets sent: broadcast , vector(packetBytes)"
vector 284 mobilityDrones.sensors[3].wlan[0].mac.dcf packetSentToPeerWithoutRetry:vector(packetBytes) ETV
attr interpolationmode none
attr source ieee80211NotRetry(packetSentToPeer)
attr title "packets sent: without retry, vector(packetBytes)"
vector 285 mobilityDrones.sensors[3].wlan[0].mac.dcf.channelAccess.inProgressFrames queueingTime:vector ETV
attr interpolationmode none
attr source queueingTime(packetDequeued)
attr title "queueing times, vector"
vector 286 mobilityDrones.sensors[6].wlan[0].mac packetReceivedFromLower:vector(packetBytes) ETV
attr interpolationmode none
attr title "packets received from lower layer, vector(packetBytes)"
vector 287 mobilityDrones.sensors[6].wlan[0].mac.dcf packetReceivedFromPeer:vector(packetBytes) ETV
attr interpolationmode none
attr title "packets received, vector(packetBytes)"
vector 288 mobilityDrones.sensors[6].wlan[0].mac.dcf packetReceivedFromPeerMulticast:vector(packetBytes) ETV
attr interpolationmode none
attr source ieee80211Multicast(packetReceivedFromPeer)
attr title "packets received: multicast, vector(packetBytes)"
vector 289 mobilityDrones.sensors[6].wlan[0].mac.dcf packetReceivedFromPeerBroadcast:vector(packetBytes) ETV
attr interpolationmode none
attr source ieee80211Broadcast(packetReceivedFromPeer)
attr title "packets received: broadcast, vector(packetBytes)"
vector 290 mobilityDrones.sensors[6].wlan[0].mac.dcf packetReceivedFromPeerWithoutRetry:vector(packetBytes) ETV
attr interpolationmode none
attr source ieee80211NotRetry(packetReceivedFromPeer)
attr title "packets received: without retry, vector(packetBytes)"
vector 291 mobilityDrones.sensors[6].wlan[0].mac packetSentToUpper:vector(packetBytes) ETV
attr interpolationmode none
attr title "packets sent to upper layer, vector(packetBytes)"
vector 292 mobilityDrones.sensors[1].wlan[0].mac.dcf packetReceivedFromPeerBroadcast:vector(packetBytes) ETV
attr interpolationmode none
attr source ieee80211Broadcast(packetReceivedFromPeer)
attr title "packets received: broadcast, vector(packetBytes)"
vector 293 mobilityDrones.sensors[1].wlan[0].mac.dcf packetDrop:vector(packetBytes) ETV
attr interpolationmode none
attr source packetDropped
attr title "packet drops, vector(packetBytes)"
vector 294 mobilityDrones.sensors[1].wlan[0].mac.dcf packetDropNotAddressedToUs:vector(packetBytes) ETV
attr interpolationmode none
attr source packetDropReasonIsNotAddressedToUs(packetDropped)
attr title "packet drops: not addressed to us, vector(packetBytes)"
vector 295 mobilityDrones.sensors[1].wlan[0].mac packetDropNotAddressedToUs:vector(packetBytes) ETV
attr interpolationmode none
attr source packetDropReasonIsNotAddressedToUs(packetDropped)
attr title "packet drops: not addressed to us, vector(packetBytes)"
vector 296 mobilityDrones.sensors[3].wlan[0].mac.dcf packetReceivedFromPeerUnicast:vector(packetBytes) ETV
attr interpolationmode none
attr source ieee80211Unicast(packetReceivedFromPeer)
attr title "packets received: unicast, vector(packetBytes)"
vector 297 mobilityDrones.sensors[3].wlan[0].mac.dcf packetSentToPeerUnicast:vector(packetBytes) ETV
attr interpolationmode none
attr source ieee80211Unicast(packetSentToPeer)
attr title "packets sent: unicast, vector(packetBytes)"
vector 298 mobilityDrones.sensors[6].wlan[0].mac.dcf packetDrop:vector(packetBytes) ETV
attr interpolationmode none
attr source packetDropped
attr title "packet drops, vector(packetBytes)"
vector 299 mobilityDrones.sensors[6].wlan[0].mac.dcf packetDropNotAddressedToUs:vector(packetBytes) ETV
attr interpolationmode none
attr source packetDropReasonIsNotAddressedToUs(packetDropped)
attr title "packet drops: not addressed to us, vector(packetBytes)"
vector 300 mobilityDrones.sensors[6].wlan[0].mac packetDrop:vector(packetBytes) ETV
attr interpolationmode none
attr source packetDropped
attr title "packet drops, vector(packetBytes)"
vector 301 mobilityDrones.sensors[6].wlan[0].mac packetDropNotAddressedToUs:vector(packetBytes) ETV
attr interpolationmode none
attr source packetDropReasonIsNotAddressedToUs(packetDropped)
attr title "packet drops: not addressed to us, vector(packetBytes)"
vector 302 mobilityDrones.sensors[3].wlan[0].mac.rx nav:vector ETV
attr interpolationmode linear
attr source navChanged
attr title "network allocation vector, vector"
vector 303 mobilityDrones.sensors[6].wlan[0].mac packetDropIncorrectlyReceived:vector(packetBytes) ETV
attr interpolationmode none
attr source packetDropReasonIsIncorrectlyReceived(packetDropped)
attr title "packet drops: incorrectly received, vector(packetBytes)"
vector 304 mobilityDrones.sensors[0].wlan[0].mac packetDrop:vector(packetBytes) ETV
attr interpolationmode none
attr source packetDropped
attr title "packet drops, vector(packetBytes)"
vector 305 mobilityDrones.sensors[0].wlan[0].mac packetDropIncorrectlyReceived:vector(packetBytes) ETV
attr interpolationmode none
attr source packetDropReasonIsIncorrectlyReceived(packetDropped)
attr title "packet drops: incorrectly received, vector(packetBytes)"
vector 306 mobilityDrones.quads[1].wlan[0].mac.dcf packetReceivedFromPeerBroadcast:vector(packetBytes) ETV
attr interpolationmode none
attr source ieee80211Broadcast(packetReceivedFromPeer)
attr title "packets received: broadcast, vector(packetBytes)"
vector 307 mobilityDrones.quads[1].ipv4.arp arpReplySent:vector(packetBytes) ETV
attr source arpReplySent
attr title "ARP replies sent, vector(packetBytes)"
vector 308 mobilityDrones.quads[1].wlan[0].mac.dcf packetSentToPeerUnicast:vector(packetBytes) ETV
attr interpolationmode none
attr source ieee80211Unicast(packetSentToPeer)
attr title "packets sent: unicast, vector(packetBytes)"
vector 309 mobilityDrones.quads[1].wlan[0].mac.rx nav:vector ETV
attr interpolationmode linear
attr source navChanged
attr title "network allocation vector, vector"
vector 310 mobilityDrones.quads[1].wlan[0].mac.dcf packetReceivedFromPeerUnicast:vector(packetBytes) ETV
attr interpolationmode none
attr source ieee80211Unicast(packetReceivedFromPeer)
attr title "packets received: unicast, vector(packetBytes)"
vector 311 mobilityDrones.quads[1].app[0] packetReceived:vector(packetBytes) ETV
attr interpolationmode none
attr source packetReceived
attr title "packets received, vector(packetBytes)"
vector 312 mobilityDrones.quads[1].app[0] throughput:vector ETV
attr source throughput(packetReceived)
attr title "throughput, vector"
attr unit bps
vector 313 mobilityDrones.quads[1].app[0] rcvdPkLifetime:vector ETV
attr interpolationmode none
attr source dataAge(packetReceived)
attr title "received packet lifetime, vector"
attr unit s
vector 314 mobilityDrones.groundStation.app[0] packetSent:vector(packetBytes) ETV
attr interpolationmode none
attr source packetSent
attr title "packets sent, vector(packetBytes)"
vector 315 mobilityDrones.groundStation.udp packetSent:vector(packetBytes) ETV
attr interpolationmode none
attr source packetSent
attr title "packets sent, vector(packetBytes)"
vector 316 mobilityDrones.groundStation.lo[0].lo rcvdPkFromHl:vector(packetBytes) ETV
attr interpolationmode none
attr source packetReceivedFromUpper
attr title "packets received from higher layer, vector(packetBytes)"
vector 317 mobilityDrones.groundStation.lo[0].lo passedUpPk:vector(packetBytes) ETV
attr interpolationmode none
attr source packetSentToUpper
attr title "packets passed to higher layer, vector(packetBytes)"
vector 318 mobilityDrones.groundStation.wlan[0].mac packetReceivedFromUpper:vector(packetBytes) ETV
attr interpolationmode none
attr title "packets received from upper layer, vector(packetBytes)"
vector 319 mobilityDrones.groundStation.wlan[0].mac.dcf.channelAccess.pendingQueue packetPushed:vector(packetBytes) ETV
attr interpolationmode none
attr title "packet pushed, vector(packetBytes)"
vector 320 mobilityDrones.groundStation.wlan[0].mac.dcf.channelAccess.pendingQueue queueLength:vector ETV
attr interpolationmode sample-hold
attr source "count(packetPushed) - count(packetPopped) - count(packetRemoved) - count(packetDropped)"
attr title "queue length, vector"
vector 321 mobilityDrones.groundStation.wlan[0].mac.dcf.channelAccess.contention backoffPeriodGenerated:vector ETV
attr interpolationmode none
attr title "backoff periods, vector"
vector 322 mobilityDrones.groundStation.wlan[0].mac.dcf.channelAccess.contention backoffActive:vector ETV
attr interpolationmode sample-hold
attr source count(backoffStarted)-count(backoffStopped)
attr title "backoff active, vector"
vector 323 mobilityDrones.groundStation.udp packetReceived:vector(packetBytes) ETV
attr interpolationmode none
attr source packetReceived
attr title "packets received, vector(packetBytes)"
vector 324 mobilityDrones.groundStation.udp passedUpPk:vector(count) ETV
attr interpolationmode none
attr source packetSentToUpper
attr title "packets passed up, vector(count)"
vector 325 mobilityDrones.groundStation.wlan[0].mac.dcf.channelAccess.pendingQueue packetPopped:vector(packetBytes) ETV
attr interpolationmode none
attr title "packet popped, vector(packetBytes)"
vector 326 mobilityDrones.groundStation.wlan[0].mac.dcf.channelAccess.pendingQueue queueingTime:vector ETV
attr interpolationmode none
attr source queueingTime(packetPopped)
attr title "queueing times, vector"
attr unit s
vector 327 mobilityDrones.groundStation.wlan[0].mac.dcf.channelAccess.inProgressFrames queueLength:vector ETV
attr interpolationmode sample-hold
attr source "count(packetEnqueued) - count(packetDequeued)"
attr title "queue length, vector"
vector 328 mobilityDrones.groundStation.wlan[0].mac.dcf datarateSelected:vector ETV
attr interpolationmode none
attr title "datarates selected, vector"
vector 329 mobilityDrones.groundStation.wlan[0].mac packetSentToLower:vector(packetBytes) ETV
attr interpolationmode none
attr title "packets sent to lower layer, vector(packetBytes)"
vector 330 mobilityDrones.groundStation.wlan[0].mac.dcf frameSequenceActive:vector ETV
attr interpolationmode sample-hold
attr source count(frameSequenceStarted)-count(frameSequenceFinished)
attr title "frame sequence active, vector"
vector 331 mobilityDrones.groundStation.wlan[0].radio transmissionState:vector ETV
attr interpolationmode sample-hold
attr source transmissionStateChanged
attr title "Radio transmission state, vector"
vector 332 mobilityDrones.groundStation.wlan[0].mac.dcf packetSentToPeer:vector(packetBytes) ETV
attr interpolationmode none
attr title "packets sent, vector(packetBytes)"
vector 333 mobilityDrones.groundStation.wlan[0].mac.dcf packetSentToPeerMulticast:vector(packetBytes) ETV
attr interpolationmode none
attr source ieee80211Multicast(packetSentToPeer)
attr title "packets sent: multicast, vector(packetBytes)"
vector 334 mobilityDrones.groundStation.wlan[0].mac.dcf packetSentToPeerWithoutRetry:vector(packetBytes) ETV
attr interpolationmode none
attr source ieee80211NotRetry(packetSentToPeer)
attr title "packets sent: without retry, vector(packetBytes)"
vector 335 mobilityDrones.groundStation.wlan[0].mac.dcf.channelAccess.inProgressFrames queueingTime:vector ETV
attr interpolationmode none
attr source queueingTime(packetDequeued)
attr title "queueing times, vector"
vector 336 mobilityDrones.sensors[2].wlan[0].mac packetReceivedFromLower:vector(packetBytes) ETV
attr interpolationmode none
attr title "packets received from lower layer, vector(packetBytes)"
vector 337 mobilityDrones.sensors[2].wlan[0].mac packetDrop:vector(packetBytes) ETV
attr interpolationmode none
attr source packetDropped
attr title "packet drops, vector(packetBytes)"
vector 338 mobilityDrones.sensors[2].wlan[0].mac packetDropIncorrectlyReceived:vector(packetBytes) ETV
attr interpolationmode none
attr source packetDropReasonIsIncorrectlyReceived(packetDropped)
attr title "packet drops: incorrectly received, vector(packetBytes)"
vector 339 mobilityDrones.sensors[2].wlan[0].mac.dcf packetReceivedFromPeer:vector(packetBytes) ETV
attr interpolationmode none
attr title "packets received, vector(packetBytes)"
vector 340 mobilityDrones.sensors[2].wlan[0].mac.dcf packetReceivedFromPeerMulticast:vector(packetBytes) ETV
attr interpolationmode none
attr source ieee80211Multicast(packetReceivedFromPeer)
attr title "packets received: multicast, vector(packetBytes)"
vector 341 mobilityDrones.sensors[2].wlan[0].mac.dcf packetReceivedFromPeerWithoutRetry:vector(packetBytes) ETV
attr interpolationmode none
attr source ieee80211NotRetry(packetReceivedFromPeer)
attr title "packets received: without retry, vector(packetBytes)"
vector 342 mobilityDrones.sensors[2].wlan[0].mac packetSentToUpper:vector(packetBytes) ETV
attr interpolationmode none
attr title "packets sent to upper layer, vector(packetBytes)"
vector 343 mobilityDrones.sensors[2].udp packetReceived:vector(packetBytes) ETV
attr interpolationmode none
attr source packetReceived
attr title "packets received, vector(packetBytes)"
vector 344 mobilityDrones.sensors[2].udp passedUpPk:vector(count) ETV
attr interpolationmode none
attr source packetSentToUpper
attr title "packets passed up, vector(count)"
vector 345 mobilityDrones.sensors[2].app[0] packetReceived:vector(packetBytes) ETV
attr interpolationmode none
attr source packetReceived
attr title "packets received, vector(packetBytes)"
vector 346 mobilityDrones.sensors[2].app[0] throughput:vector ETV
attr source throughput(packetReceived)
attr title "throughput, vector"
attr unit bps
vector 347 mobilityDrones.sensors[2].app[0] rcvdPkLifetime:vector ETV
attr interpolationmode none
attr source dataAge(packetReceived)
attr title "received packet lifetime, vector"
attr unit s
vector 348 mobilityDrones.sensors[2].app[0] packetSent:vector(packetBytes) ETV
attr interpolationmode none
attr source packetSent
attr title "packets sent, vector(packetBytes)"
vector 349 mobilityDrones.sensors[2].udp packetSent:vector(packetBytes) ETV
attr interpolationmode none
attr source packetSent
attr title "packets sent, vector(packetBytes)"
vector 350 mobilityDrones.sensors[2].ipv4.arp arpRequestSent:vector(packetBytes) ETV
attr source arpRequestSent
attr title "ARP request sent, vector(packetBytes)"
vector 351 mobilityDrones.sensors[2].wlan[0].mac packetReceivedFromUpper:vector(packetBytes) ETV
attr interpolationmode none
attr title "packets received from upper layer, vector(packetBytes)"
vector 352 mobilityDrones.sensors[2].wlan[0].mac.dcf.channelAccess.pendingQueue packetPushed:vector(packetBytes) ETV
attr interpolationmode none
attr title "packet pushed, vector(packetBytes)"
vector 353 mobilityDrones.sensors[2].wlan[0].mac.dcf.channelAccess.pendingQueue queueLength:vector ETV
attr interpolationmode sample-hold
attr source "count(packetPushed) - count(packetPopped) - count(packetRemoved) - count(packetDropped)"
attr title "queue length, vector"
vector 354 mobilityDrones.sensors[2].wlan[0].mac.dcf.channelAccess.contention backoffPeriodGenerated:vector ETV
attr interpolationmode none
attr title "backoff periods, vector"
vector 355 mobilityDrones.sensors[2].wlan[0].mac.dcf.channelAccess.contention backoffActive:vector ETV
attr interpolationmode sample-hold
attr source count(backoffStarted)-count(backoffStopped)
attr title "backoff active, vector"
vector 356 mobilityDrones.sensors[2].wlan[0].mac.dcf.channelAccess.pendingQueue packetPopped:vector(packetBytes) ETV
attr interpolationmode none
attr title "packet popped, vector(packetBytes)"
vector 357 mobilityDrones.sensors[2].wlan[0].mac.dcf.channelAccess.pendingQueue queueingTime:vector ETV
attr interpolationmode none
attr source queueingTime(packetPopped)
attr title "queueing times, vector"
attr unit s
vector 358 mobilityDrones.sensors[2].wlan[0].mac.dcf.channelAccess.inProgressFrames queueLength:vector ETV
attr interpolationmode sample-hold
attr source "count(packetEnqueued) - count(packetDequeued)"
attr title "queue length, vector"
vector 359 mobilityDrones.sensors[2].wlan[0].mac.dcf datarateSelected:vector ETV
attr interpolationmode none
attr title "datarates selected, vector"
vector 360 mobilityDrones.sensors[2].wlan[0].mac packetSentToLower:vector(packetBytes) ETV
attr interpolationmode none
attr title "packets sent to lower layer, vector(packetBytes)"
vector 361 mobilityDrones.sensors[2].wlan[0].mac.dcf frameSequenceActive:vector ETV
attr interpolationmode sample-hold
attr source count(frameSequenceStarted)-count(frameSequenceFinished)
attr title "frame sequence active, vector"
vector 362 mobilityDrones.sensors[2].wlan[0].radio transmissionState:vector ETV
attr interpolationmode sample-hold
attr source transmissionStateChanged
attr title "Radio transmission state, vector"
vector 363 mobilityDrones.sensors[2].wlan[0].mac.dcf packetSentToPeer:vector(packetBytes) ETV
attr interpolationmode none
[...]
181	14478916 2177 470597 494029 1584.653488012454 1643.653488012454 66 64 78 5120 397568
182	14481093 2157 470597 494029 1584.653488012454 1643.653488012454 66 0 0.020454 0.060244791596 0.0011248872250146
183	14483250 4223 470597 494257 1584.653488012454 1643.684665012454 132 0 1 66 66
184	14487473 6433 470597 494227 1584.653488012454 1643.684556012454 165 24000000 24000000 3960000000 9.504e+016
185	14493906 5443 470597 494227 1584.653488012454 1643.684556012454 165 14 78 12266 946892
186	14499349 9983 470597 494257 1584.653488012454 1643.684665012454 312 0 1 156 156
187	14509332 21112 470598 494243 1584.653488012454 1643.684610012454 660 0 2 660 990
188	14530444 5443 470613 494242 1584.653542012454 1643.684610012454 165 14 78 12266 946892
189	14535887 1419 470613 493137 1584.653542012454 1641.653542012454 43 78 78 3354 261612
190	14537306 2473 470613 494044 1584.653542012454 1643.653542012454 75 14 78 5246 399332
191	14539779 2620 470613 494257 1584.653542012454 1643.684665012454 66 5.4e-005 0.071417 0.662319221719 0.032543018871035
192	14542399 660 471471 494008 1590.000054398346 1643.036319745104 20 14 78 1496 115792
193	14543059 264 471471 493218 1590.000054398346 1641.662791200635 8 14 78 560 42784
194	14543323 394 470523 488854 1584.000542852279 1630.000622924732 12 14 78 616 43568
195	14543717 97 480765 481153 1609.000054404822 1611.0000543392 3 78 78 234 18252
196	14543814 97 480765 481153 1609.000054404822 1611.0000543392 3 78 78 234 18252
197	14543911 2112 470540 493779 1584.026202745104 1643.026202745104 64 14 14 896 12544
198	14546023 2112 470541 493780 1584.026202745104 1643.026202745104 64 22 22 1408 30976
199	14548135 1419 470543 493065 1584.026202745104 1641.026202745104 43 42 42 1806 75852
200	14549554 1419 470543 493065 1584.026202745104 1641.026202745104 43 42 42 1806 75852
201	14550973 2145 470546 493783 1584.026202745104 1643.026202745104 65 36 50 3236 161296
202	14553118 2145 470546 493783 1584.026202745104 1643.026202745104 65 64 78 5056 393472
203	14555263 4160 470546 493785 1584.026202745104 1643.026202745104 130 0 1 65 65
204	14559423 4544 470546 493975 1584.026202745104 1643.033851745104 135 0 1020 51083 32934495
205	14563967 8896 470546 493976 1584.026202745104 1643.036210745104 278 0 1 139 139
206	14572863 1781 470547 493320 1584.026202745104 1641.680103991077 54 22 22 1188 26136
207	14574644 1889 470547 493320 1584.026202745104 1641.680103991077 54 1355 1408 74601 103074399
208	14576533 2145 470550 493785 1584.026202745104 1643.026202745104 65 64 78 5056 393472
209	14578678 2112 470550 493785 1584.026202745104 1643.026202745104 65 0 0.01831 0.052718 0.000732302932
210	14580790 4159 470550 494008 1584.026202745104 1643.036319745104 130 0 1 65 65
211	14584949 5654 470550 493977 1584.026202745104 1643.036210745104 145 24000000 24000000 3480000000 8.352e+016
212	14590603 4784 470550 493977 1584.026202745104 1643.036210745104 145 14 78 10656 821312
213	14595387 8639 470550 494008 1584.026202745104 1643.036319745104 270 0 1 135 135
214	14604026 18556 470551 493994 1584.026202745104 1643.036264745104 580 0 2 580 870
215	14622582 4784 470565 493993 1584.026256745104 1643.036264745104 145 14 78 10656 821312
216	14627366 1452 470565 493087 1584.026256745104 1641.026256745104 44 64 78 3418 265708
217	14628818 2474 470565 493800 1584.026256745104 1643.026256745104 75 14 78 5196 395432
218	14631292 2596 470565 494008 1584.026256745104 1643.036319745104 65 5e-005 0.077557 0.490961340677 0.025317443497023
219	14633888 297 470523 488854 1584.000542852279 1630.000622924732 9 14 78 382 25316
220	14634185 132 481365 488767 1612.000054306565 1630.000054308232 4 78 78 312 24336
221	14634317 297 470523 488854 1584.000542852279 1630.000622924732 9 14 78 382 25316
222	14634614 132 481365 488767 1612.000054306565 1630.000054308232 4 50 50 200 10000
223	14634746 132 481368 488770 1612.000054306565 1630.000054308232 4 22 22 88 1936
224	14634878 136 481368 488770 1612.000054306565 1630.000054308232 4 167 170 674 113574
225	14635014 132 481369 488771 1612.000054306565 1630.000054308232 4 14 14 56 784
226	14635146 9580 481369 488771 1584.1 1630 460 0 1120 4480 5017600
227	14644726 180 481369 488771 1612.000054306565 1630.000054308232 4 5.4119446e-005 5.4308232e-005 0.000216855107 1.1756569420518e-008
228	14644906 132 481369 488771 1612.000054306565 1630.000054308232 4 14 14 56 784
229	14645038 132 481370 488772 1612.000054306565 1630.000054308232 4 22 22 88 1936
231	14645170 132 481373 488775 1612.000054306565 1630.000054308232 4 50 50 200 10000
232	14645302 132 481373 488775 1612.000054306565 1630.000054308232 4 78 78 312 24336
233	14645434 256 481373 488800 1612.000054306565 1630.000524308232 8 0 1 4 4
234	14645690 130 481373 488775 1612.000054306565 1630.000054308232 4 1 21 40 676
235	14645820 256 481373 488799 1612.000054306565 1630.000524308232 8 0 1 4 4
236	14646076 132 481399 488800 1612.000124306565 1630.000524308232 4 78 78 312 24336
237	14646208 151 481399 488800 1612.000124306565 1630.000524308232 4 7e-005 0.00047 0.001 3.604e-007
238	14646359 288 470523 488854 1584.000542852279 1630.000622924732 9 0 1 4 4
239	14646647 156 481399 488800 1612.000124306565 1630.000524308232 4 24000000 24000000 96000000 2.304e+015
240	14646803 132 481399 488800 1612.000124306565 1630.000524308232 4 78 78 312 24336
241	14646935 288 470523 488854 1584.000542852279 1630.000622924732 9 0 1 4 4
242	14647223 512 481400 488816 1612.000124306565 1630.000578308232 16 0 2 16 24
243	14647735 132 481414 488815 1612.000178306565 1630.000578308232 4 78 78 312 24336
246	14647867 132 481414 488815 1612.000178306565 1630.000578308232 4 78 78 312 24336
247	14647999 222 470523 488854 1584.000542852279 1630.000622924732 5 9.8238881e-005 9.86165e-005 0.000492278449 4.846777034724e-008
248	14648221 328 470493 488824 1584.000498696923 1630.000578721072 10 14 78 588 43176
249	14648549 328 470493 488824 1584.000498696923 1630.000578721072 10 14 78 588 43176
250	14648877 132 470493 488824 1584.000498696923 1630.000578721072 4 78 78 312 24336
251	14649009 165 470523 488854 1584.000542852279 1630.000622924732 5 14 14 70 980
252	14649174 132 481414 488815 1612.000178306565 1630.000578308232 4 78 78 312 24336
253	14649306 196 470525 487278 1584.000542968977 1624.000458533704 6 14 78 276 18840
254	14649502 196 470525 487278 1584.000542968977 1624.000458533704 6 14 78 276 18840
255	14649698 196 470525 487278 1584.000542968977 1624.000458533704 6 14 78 276 18840
256	14649894 444 470519 488850 1584.000542284083 1630.000622308232 13 0 4.4e-005 0.000176 7.744e-009
302	14650338 309 481423 487309 1612.000178719405 1624.000502533704 9 0 4.4e-005 0.000132 5.808e-009
304	14650647 2666 472305 479673 1592.654166762572 1603.301527053195 81 14 78 5792 443712
305	14653313 99 475187 478035 1596.000054396896 1601.003858407269 3 78 78 234 18252
306	14653412 65 475856 476731 1597.00025459927 1598.251419460668 2 64 64 128 8192
307	14653477 33 476733 476733 1598.251419460668 1598.251419460668 1 28 28 28 784
308	14653510 3430 471218 492398 1588.251307209004 1639.251667156298 104 14 78 7266 554204
309	14656940 9576 472302 487601 1592.654166388643 1624.322350747152 279 0 4.4e-005 0.004092 1.80048e-007
310	14666516 658 471186 492366 1588.251263209004 1639.251623156298 20 14 78 1098 78476
311	14667174 460 471190 492370 1588.251263209004 1639.251623156298 14 14 14 196 2744
312	14667634 11889 471190 492370 1582.3 1639.2 570 0 2240 15680 25088000
313	14679523 627 471190 492370 1588.251263209004 1639.251623156298 14 5.4359069e-005 0.020508374779 0.034230181671 0.00052271164779709
314	14680150 1279 470633 493737 1585 1643 62 14 14 868 12152
315	14681429 1279 470636 493740 1585 1643 62 22 22 1364 30008
316	14682708 980 470638 493742 1585 1643 49 42 42 2058 86436
317	14683688 980 470638 493742 1585 1643 49 42 42 2058 86436
318	14684668 1279 470641 493745 1585 1643 62 50 50 3100 155000
319	14685947 1279 470641 493745 1585 1643 62 78 78 4836 377208
320	14687226 2434 470641 493749 1585 1643 124 0 2 64 66
321	14689660 2704 470641 493745 1585 1643 111 8 1020 48102 32689606
322	14692364 5529 470641 493748 1585 1643 238 0 1 119 119
323	14697893 1210 470642 493746 1585 1643 56 22 22 1232 27104
324	14699103 1322 470642 493746 1585 1643 56 1404 1459 80164 114769396
325	14700425 1279 470645 493749 1585 1643 62 78 78 4836 377208
326	14701704 1243 470645 493749 1585 1643 62 0 0.017292347524 0.036416347524 0.00053530541889079
327	14702947 2871 470645 493764 1585 1643.000054 124 0 2 64 66
328	14705818 3522 470645 493749 1585 1643 117 24000000 24000000 2808000000 6.7392e+016
329	14709340 2820 470645 493749 1585 1643 117 14 78 8742 676500
330	14712160 5458 470645 493764 1585 1643.000054 222 0 1 111 111
331	14717618 11640 470646 493765 1585 1643.000054 468 0 2 468 702
332	14729258 3234 470660 493764 1585.000054 1643.000054 117 14 78 8742 676500
333	14732492 1323 470660 493764 1585.000054 1643.000054 49 78 78 3822 298116
334	14733815 1889 470660 493764 1585.000054 1643.000054 68 14 78 4920 378384
335	14735704 2130 470660 493764 1585.000054 1643.000054 62 5.4e-005 0.077577 0.352075366996 0.016537050146688
336	14737834 132 491835 492710 1639.000054390427 1640.003267787735 4 14 78 234 16460
337	14737966 33 491835 491835 1639.000054390427 1639.000054390427 1 78 78 78 6084
338	14737999 33 491835 491835 1639.000054390427 1639.000054390427 1 78 78 78 6084
339	14738032 99 492515 492710 1640.000054357607 1640.003267787735 3 14 78 156 10376
340	14738131 33 492515 492515 1640.000054357607 1640.000054357607 1 78 78 78 6084
341	14738164 99 492515 492710 1640.000054357607 1640.003267787735 3 14 78 156 10376
342	14738263 66 492515 492606 1640.000054357607 1640.002535072731 2 36 50 86 3796
343	14738329 33 492518 492518 1640.000054357607 1640.000054357607 1 22 22 22 484
344	14738362 34 492518 492518 1640.000054357607 1640.000054357607 1 104 104 104 10816
345	14738396 33 492519 492519 1640.000054357607 1640.000054357607 1 14 14 14 196
346	14738429 18307 492519 492519 1552.1 1640 880 0 1120 1120 1254400
347	14756736 45 492519 492519 1640.000054357607 1640.000054357607 1 5.4357607e-005 5.4357607e-005 5.4357607e-005 2.9547494387664e-009
348	14756781 33 492519 492519 1640.000054357607 1640.000054357607 1 14 14 14 196
349	14756814 33 492520 492520 1640.000054357607 1640.000054357607 1 22 22 22 484
350	14756847 33 492521 492521 1640.000054357607 1640.000054357607 1 28 28 28 784
351	14756880 66 492523 492610 1640.000054357607 1640.002535072731 2 36 50 86 3796
352	14756946 66 492523 492610 1640.000054357607 1640.002535072731 2 64 78 142 10180
353	14757012 128 492523 492655 1640.000054357607 1640.003169072731 4 0 1 2 2
354	14757140 65 492523 492610 1640.000054357607 1640.002535072731 2 6 27 33 765
355	14757205 192 492523 492654 1640.000054357607 1640.003169072731 6 0 1 3 3
356	14757397 66 492550 492655 1640.000224357607 1640.003169072731 2 64 78 142 10180
357	14757463 77 492550 492655 1640.000224357607 1640.003169072731 2 0.00017 0.000634 0.000804 4.30856e-007
358	14757540 128 492550 492710 1640.000224357607 1640.003267787735 4 0 1 2 2
359	14757668 117 492550 492655 1640.000224357607 1640.003169072731 3 24000000 24000000 72000000 1.728e+015
360	14757785 99 492550 492655 1640.000224357607 1640.003169072731 3 14 78 156 10376
361	14757884 128 492550 492710 1640.000224357607 1640.003267787735 4 0 1 2 2
362	14758012 384 492551 492671 1640.000224357607 1640.003223072731 12 0 2 12 18
363	14758396 99 492565 492670 1640.000274357607 1640.003223072731 3 14 78 156 10376
364	14758495 33 492565 492565 1640.000274357607 1640.000274357607 1 64 64 64 4096
365	14758528 33 492565 492565 1640.000274357607 1640.000274357607 1 64 64 64 4096
366	14758561 99 492565 492670 1640.000274357607 1640.003223072731 3 14 78 156 10376
367	14758660 82 492565 492710 1640.000274357607 1640.003267787735 2 5e-005 9.8715004e-005 0.000148715004 1.224465201472e-008
368	14758742 97 492574 492679 1640.000274716726 1640.00322343185 3 14 78 156 10376
369	14758839 33 492574 492574 1640.000274716726 1640.000274716726 1 64 64 64 4096
370	14758872 33 492574 492574 1640.000274716726 1640.000274716726 1 64 64 64 4096
371	14758905 33 492574 492574 1640.000274716726 1640.000274716726 1 64 64 64 4096
372	14758938 33 492574 492574 1640.000274716726 1640.000274716726 1 64 64 64 4096
373	14758971 33 492574 492574 1640.000274716726 1640.000274716726 1 36 36 36 1296
374	14759004 66 492606 492710 1640.002535072731 1640.003267787735 2 14 64 78 4292
375	14759070 66 492638 492670 1640.002579072731 1640.003223072731 2 14 78 92 6280
376	14759136 64 492643 492679 1640.00257943185 1640.00322343185 2 14 78 92 6280
377	14759200 64 492643 492679 1640.00257943185 1640.00322343185 2 14 78 92 6280
378	14759264 64 492643 492679 1640.00257943185 1640.00322343185 2 14 78 92 6280
379	14759328 64 492643 492679 1640.00257943185 1640.00322343185 2 14 78 92 6280
380	14759392 103 492670 492705 1640.003223072731 1640.003267072731 3 0 4.4e-005 4.4e-005 1.936e-009
381	14759495 100 492679 492708 1640.00322343185 1640.00326743185 3 0 4.4e-005 4.4e-005 1.936e-009
384	14759595 66 481797 485006 1613.671902775025 1619.668702787514 2 64 64 128 8192
385	14759661 66 481799 485008 1613.671902775025 1619.668702787514 2 28 28 56 1568
386	14759727 4024 472343 494242 1592.65421076479 1643.684610012454 122 14 78 8912 685280
387	14763751 11636 472377 494256 1592.67467476479 1643.684654012454 339 0 4.4e-005 0.004972 2.18768e-007
388	14775387 560 472307 493438 1592.65416676479 1642.026257139242 17 14 78 814 56324
389	14775947 263 472311 493442 1592.65416676479 1642.026257139242 8 14 14 112 1568
390	14776210 15000 472311 493442 1570.1 1642 720 0 2240 10080 13798400
391	14791210 359 472311 493442 1592.65416676479 1642.026257139242 8 5.4373497e-005 0.043609157832 0.085684614196 0.0030127471723489
392	14791569 32 484972 484972 1619.65354240049 1619.65354240049 1 28 28 28 784
393	14791601 32 485003 485003 1619.66870240049 1619.66870240049 1 64 64 64 4096
394	14791633 510 477465 479418 1600.000882 1603.062782 19 78 78 1482 115596
395	14792143 33 477470 477470 1600.000882406243 1600.000882406243 1 78 78 78 6084
396	14792176 279 476124 479433 1597.271087147361 1603.062837 9 14 78 638 48868
397	14792455 81 478156 479433 1601.015577 1603.062837 3 78 78 234 18252
398	14792536 81 478156 479433 1601.015577 1603.062837 3 78 78 234 18252
399	14792617 2376 473684 487587 1594.251666747152 1624.322306747152 72 78 78 5616 438048
400	14794993 528 473875 487602 1594.267721747152 1624.322361747152 16 14 78 1106 83580
401	14795521 396 473875 487602 1594.267721747152 1624.322361747152 12 78 78 936 73008
402	14795917 396 473875 487602 1594.267721747152 1624.322361747152 12 78 78 936 73008
407	14796313 2567 472305 479673 1592.654166762572 1603.301527053195 78 14 78 5558 425460
408	14798880 2567 472305 479673 1592.654166762572 1603.301527053195 78 14 78 5558 425460
409	14801447 2567 472305 479673 1592.654166762572 1603.301527053195 78 14 78 5558 425460
410	14804014 2970 473936 494242 1594.654750012454 1643.684610012454 90 78 78 7020 547560
411	14806984 528 474116 494257 1594.687205012454 1643.684665012454 16 78 78 1248 97344
412	14807512 495 474116 494257 1594.687205012454 1643.684665012454 15 78 78 1170 91260
413	14808007 495 474116 494257 1594.687205012454 1643.684665012454 15 78 78 1170 91260
416	14808502 3332 471634 493993 1590.048373539348 1643.036264745104 101 14 78 7238 555604
417	14811834 9373 471665 494007 1590.048657539348 1643.036308745104 273 0 4.4e-005 0.004004 1.76176e-007
420	14821207 658 471598 493475 1590.048329539348 1642.02630153338 20 14 78 906 60812
421	14821865 362 471602 493321 1590.048329539348 1641.680103991077 11 14 14 154 2156
422	14822227 14789 471602 493144 1570.7 1641.6 710 0 3360 11200 22579200
423	14837016 493 471602 493321 1590.048329539348 1641.680103991077 11 5.4365504e-005 0.022072396759 0.066440242645 0.0011235568440883
424	14837509 33 481763 481763 1613.653542394107 1613.653542394107 1 28 28 28 784
425	14837542 33 481794 481794 1613.671902394107 1613.671902394107 1 64 64 64 4096
426	14837575 33 476727 476727 1598.251419427032 1598.251419427032 1 64 64 64 4096
427	14837608 396 472948 494008 1593.063421449425 1643.036319745104 12 78 78 936 73008
432	14838004 132 475900 476002 1597.000975140348 1597.001187868387 4 14 78 170 10572
433	14838136 132 475900 476002 1597.000975140348 1597.001187868387 4 14 78 170 10572
434	14838268 198 476124 476804 1597.271087147361 1598.251927979294 6 14 78 404 30616
435	14838466 198 476124 476804 1597.271087147361 1598.251927979294 6 14 78 404 30616
439	14838664 1911 471562 492950 1590.041041142589 1640.077522 68 14 78 4920 378384
440	14840575 5391 471562 492964 1590.041041142589 1640.077566 186 0 4.4e-005 0.002728 1.20032e-007
441	14845966 395 471637 490553 1590.048373936105 1636.029501160234 12 14 78 552 37680
442	14846361 230 471529 490557 1590.026257142589 1636.029501160234 7 14 14 98 1372
443	14846591 17695 471529 490557 1551.1 1636 850 0 2240 7840 13798400
444	14864286 313 471529 490557 1590.026257142589 1636.029501160234 7 5.4364713e-005 0.013304396719 0.017148759996 0.00018800619100397
445	14864599 1345 471595 492950 1590.048329142589 1640.077522 49 78 78 3822 298116
446	14865944 2310 472700 493993 1593.027224745104 1643.036264745104 70 78 78 5460 425880
447	14868254 195 472879 492965 1593.043689023158 1640.077577 7 78 78 546 42588
448	14868449 195 472879 492965 1593.043689023158 1640.077577 7 78 78 546 42588
449	14868644 195 472879 492965 1593.043689023158 1640.077577 7 78 78 546 42588
450	14868839 363 472948 494008 1593.063421449425 1643.036319745104 11 78 78 858 66924
451	14869202 363 472948 494008 1593.063421449425 1643.036319745104 11 78 78 858 66924
452	14869565 33 493251 493251 1641.664455596378 1641.664455596378 1 78 78 78 6084
454	14869598 131 471598 490387 1590.048329539348 1636.021755243414 4 78 78 312 24336
455	14869729 33 476695 476695 1598.251059103918 1598.251059103918 1 28 28 28 784
456	14869762 33 476724 476724 1598.251419103918 1598.251419103918 1 64 64 64 4096
460	14869795 33 490387 490387 1636.021755243414 1636.021755243414 1 78 78 78 6084
461	14869828 33 490387 490387 1636.021755243414 1636.021755243414 1 78 78 78 6084
466	14869861 33 490553 490553 1636.029501160234 1636.029501160234 1 78 78 78 6084
470	14869894 33 493251 493251 1641.664455596378 1641.664455596378 1 78 78 78 6084
471	14869927 33 493251 493251 1641.664455596378 1641.664455596378 1 78 78 78 6084
vector 479 mobilityDrones.sensors[4].app[0] throughput:vector ETV
attr source throughput(packetReceived)
attr title "throughput, vector"
attr unit bps
vector 480 mobilityDrones.sensors[5].app[0] throughput:vector ETV
attr source throughput(packetReceived)
attr title "throughput, vector"
attr unit bps
vector 481 mobilityDrones.sensors[6].app[0] throughput:vector ETV
attr source throughput(packetReceived)
attr title "throughput, vector"
attr unit bps
vector 482 mobilityDrones.sensors[7].app[0] throughput:vector ETV
attr source throughput(packetReceived)
attr title "throughput, vector"
attr unit bps
130	14870580 1014 494261 494261 1639.3 1643.941789910814 48 0 1120 1120 1254400
168	14871594 848 494261 494261 1640.1 1643.941789910814 40 0 1120 1120 1254400
226	14872442 2928 494261 494261 1630.1 1643.941789910814 140 0 1120 1120 1254400
264	14875370 19110 494261 494261 1552.3 1643.941789910814 918 0 1120 1120 1254400
312	14894480 1014 494261 494261 1639.3 1643.941789910814 48 0 1120 1120 1254400
346	14895494 848 494261 494261 1640.1 1643.941789910814 40 0 1120 1120 1254400
390	14896342 432 494261 494261 1642.1 1643.941789910814 20 0 1120 1120 1254400
422	14896774 514 494261 494261 1641.7 1643.941789910814 24 0 2240 2240 5017600
443	14897288 1680 494261 494261 1636.1 1643.941789910814 80 0 1120 1120 1254400
479	14898968 330868 494261 494261 0.1 1643.941789910814 16440 0 0 0 0
480	15229836 330868 494261 494261 0.1 1643.941789910814 16440 0 0 0 0
481	15560704 330868 494261 494261 0.1 1643.941789910814 16440 0 0 0 0
482	15891572 330868 494261 494261 0.1 1643.941789910814 16440 0 0 0 0

