version 2
run Sim4drone-0-20210729-11:46:46-16824
attr configname Sim4drone
attr datetime 20210729-11:46:46
attr experiment Sim4drone
attr inifile mobilityDrones-omnetpp.ini
attr iterationvars ""
attr iterationvarsf ""
attr measurement ""
attr network mobilityDrones
attr processid 16824
attr repetition 0
attr replication #0
attr resultdir results
attr runnumber 0
attr seedset 0
param *.numUAVs 4
param *.quads[0].app[0].destAddresses "\"quads[1] quads[2] quads[3] sensors[0] sensors[1] sensors[2] groundStation\""
param *.quads[1].app[0].destAddresses "\"quads[0] quads[2] quads[3] sensors[0] sensors[1] sensors[2] groundStation\""
param *.quads[2].app[0].destAddresses "\"quads[0] quads[1] quads[3] sensors[0] sensors[1] sensors[2] groundStation\""
param *.quads[3].app[0].destAddresses "\"quads[0] quads[1] quads[2] sensors[0] sensors[1] sensors[2] groundStation\""
param *.quads[*].mobility.waypointFile "\"paths/voo2.waypoints\""
param *.quads[*].app[*].timeoutDuration 5s
param *.quads[0].mobility.startTime 0s
param *.quads[1].mobility.startTime 40s
param *.quads[2].mobility.startTime 80s
param *.quads[3].mobility.startTime 110s
param *.quads[0].app[*].startTime "normal(1s, 1s)"
param *.quads[1].app[*].startTime "normal(40s, 1s)"
param *.quads[2].app[*].startTime "normal(80s, 1s)"
param *.quads[3].app[*].startTime "normal(110s, 1s)"
param *.numSensors 8
param *.sensors[*].numApps 1
param *.sensors[*].app[0].typename "\"UdpSensorCommunicationApp\""
param *.sensors[*].app[0].destAddresses "\"quads[0] quads[1] quads[2] quads[3]\""
param *.sensors[*].app[0].destPort 1000
param *.sensors[*].app[0].localPort 1000
param *.sensors[*].app[0].sendInterval 8s
param *.sensors[*].app[0].startTime exponential(1s)
param *.sensors[*].app[0].messageLength 1454Byte
param *.sensors[*].mobility.initialAltitude 0m
param *.sensors[0].mobility.initialLatitude -15.84245230deg
param *.sensors[0].mobility.initialLongitude -47.92948720deg
param *.sensors[1].mobility.initialLatitude -15.84262780deg
param *.sensors[1].mobility.initialLongitude -47.92650460deg
param *.sensors[2].mobility.initialLatitude -15.84161630deg
param *.sensors[2].mobility.initialLongitude -47.92395110deg
param *.sensors[3..7].app[0].typename "\"UdpSinkMobileSenserNode\""
param *.sensors[3].mobility.initialLatitude -15.8436264deg
param *.sensors[3].mobility.initialLongitude -47.9270250deg
param *.sensors[4].mobility.initialLatitude -15.8406461deg
param *.sensors[4].mobility.initialLongitude -47.9240263deg
param *.sensors[5].mobility.initialLatitude -15.8416370deg
param *.sensors[5].mobility.initialLongitude -47.9227066deg
param *.sensors[6].mobility.initialLatitude -15.8437115deg
param *.sensors[6].mobility.initialLongitude -47.9259145deg
param *.sensors[7].mobility.initialLatitude -15.8437425deg
param *.sensors[7].mobility.initialLongitude -47.9246378deg
param *.groundStation.mobility.initialLatitude -15.840068deg
param *.groundStation.mobility.initialLongitude -47.926633deg
param *.groundStation.app[0].destAddresses "\"quads[0] quads[1] quads[2] quads[3]\""
param *.groundStation.app[0].startTime 130s
param *.visualizer.osgVisualizer.typename "\"IntegratedOsgVisualizer\""
param *.visualizer.osgVisualizer.sceneVisualizer.typename "\"SceneOsgEarthVisualizer\""
param *.visualizer.osgVisualizer.sceneVisualizer.mapFile "\"map.earth\""
param *.visualizer.osgVisualizer.sceneVisualizer.sceneImageSize 10000m
param *.visualizer.osgVisualizer.sceneVisualizer.axisLength 500m
param *.visualizer.osgVisualizer.sceneVisualizer.sceneMinX -200m
param *.visualizer.osgVisualizer.sceneVisualizer.sceneMinY -200m
param *.visualizer.osgVisualizer.sceneVisualizer.sceneMinZ 0m
param *.visualizer.osgVisualizer.sceneVisualizer.sceneMaxX 5000m
param *.visualizer.osgVisualizer.sceneVisualizer.sceneMaxY 5000m
param *.visualizer.osgVisualizer.sceneVisualizer.sceneMaxZ 5000m
param *.visualizer.osgVisualizer.networkNodeVisualizer.displayModuleName true
param *.visualizer.*.statisticVisualizer.signalName "\"dataLoad\""
param *.visualizer.*.statisticVisualizer.format "\"(%v)\""
param *.visualizer.*.statisticVisualizer.textColor "\"red\""
param *.visualizer.*.statisticVisualizer.font "\"Courier New, 12px, bold\""
param *.visualizer.*.statisticVisualizer.opacity 1
param *.visualizer.*.statisticVisualizer.sourceFilter "\"*.quads[*].** *.groundStation.**\""
param *.visualizer.*.mobilityVisualizer.displayMobility true
param *.visualizer.*.mobilityVisualizer.displayPositions true
param *.visualizer.*.mobilityVisualizer.displayOrientations true
param *.visualizer.*.mobilityVisualizer.displayVelocities true
param *.visualizer.*.mobilityVisualizer.displayMovementTrails true
param *.visualizer.*.mobilityVisualizer.animationSpeed 10
param *.visualizer.mediumVisualizer.displaySignals true
param **.constraintAreaMinX -5000m
param **.constraintAreaMinY -5000m
param **.constraintAreaMinZ -100m
param **.constraintAreaMaxX 5000m
param **.constraintAreaMaxY 5000m
param **.constraintAreaMaxZ 5000m
param *.quads.wlan[0].radio.displayCommunicationRange true
param *.coordinateSystem.sceneLongitude -47.926634deg
param *.coordinateSystem.sceneLatitude -15.840075deg
param *.coordinateSystem.sceneHeading 90deg
param *.environment.ground.typename "\"FlatGround\""
param *.quads[*].osgModel "\"3d/drone.ive.80.scale.0,0,90.rot\""
param *.quads[*].mobility.coordinateSystemModule "\"coordinateSystem\""
param *.quads[*].mobility.waypointFile "\"paths/gradys-vai-e-volta-descendo-5s-v1.txt\""
param *.quads[*].mobility.waypointProximity 1m
param **.mobility.initFromDisplayString false
param *.quads[*].mobility.speed 10mps
param *.quads[*].numApps 1
param *.quads[*].app[0].typename "\"UdpMobileNodeCommunicationApp\""
param *.quads[*].app[0].localPort 1000
param *.quads[*].app[0].destPort 1000
param *.quads[*].app[0].sendInterval 1s
param *.quads[*].app[0].startTime 1s
param *.quads[*].app[0].stopTime -1s
param *.quads[*].app[0].messageLength 1454Byte
param *.quads[*].app[0].packetName "\"UAV-DEFAULT-PAYLOAD\""
param *.quads[*].mobility.typename "\"DroneMobility\""
param *.sensors[*].mobility.typename "\"StationaryMobility\""
param *.sensors[*].mobility.coordinateSystemModule "\"coordinateSystem\""
param *.groundStation.mobility.typename "\"StationaryMobility\""
param *.groundStation.mobility.coordinateSystemModule "\"coordinateSystem\""
param *.groundStation.numApps 1
param *.groundStation.app[0].typename "\"UdpMobileNodeCommunicationApp\""
param *.groundStation.app[0].destPort 1000
param *.groundStation.app[0].localPort 1000
param *.groundStation.app[0].sendInterval 1s
param *.groundStation.app[0].stopTime -1s
param *.groundStation.app[0].messageLength 1454Byte
param *.groundStation.app[0].packetName "\"UAV-DEFAULT-PAYLOAD\""

scalar mobilityDrones.radioMedium.propagation "Arrival computation count" 152808
scalar mobilityDrones.radioMedium "transmission count" 12734
scalar mobilityDrones.radioMedium "signal send count" 152808
scalar mobilityDrones.radioMedium "reception computation count" 152808
scalar mobilityDrones.radioMedium "interference computation count" 468115
scalar mobilityDrones.radioMedium "reception decision computation count" 6752
scalar mobilityDrones.radioMedium "listening decision computation count" 309782
scalar mobilityDrones.radioMedium "reception cache hit" 76.689538605168
attr unit %
scalar mobilityDrones.radioMedium "interference cache hit" 66.666666666667
attr unit %
scalar mobilityDrones.radioMedium "noise cache hit" 0
attr unit %
scalar mobilityDrones.radioMedium "snir cache hit" 50
attr unit %
scalar mobilityDrones.radioMedium "reception decision cache hit" 50
attr unit %
scalar mobilityDrones.radioMedium "reception result cache hit" 0
attr unit %
scalar mobilityDrones.quads[0].lo[0].lo rcvdPkFromHl:count 563
attr interpolationmode none
attr source packetReceivedFromUpper
attr title "packets received from higher layer, count"
scalar mobilityDrones.quads[0].lo[0].lo rcvdPkFromHl:sum(packetBytes) 23646
attr interpolationmode none
attr source packetReceivedFromUpper
attr title "packets received from higher layer, sum(packetBytes)"
scalar mobilityDrones.quads[0].lo[0].lo passedUpPk:count 563
attr interpolationmode none
attr source packetSentToUpper
attr title "packets passed to higher layer, count"
scalar mobilityDrones.quads[0].lo[0].lo passedUpPk:sum(packetBytes) 23646
attr interpolationmode none
attr source packetSentToUpper
attr title "packets passed to higher layer, sum(packetBytes)"
scalar mobilityDrones.quads[0].wlan[0].mac.dcf.channelAccess.pendingQueue packetPopped:count 769
attr interpolationmode none
attr title "packet popped, count"
scalar mobilityDrones.quads[0].wlan[0].mac.dcf.channelAccess.pendingQueue packetPopped:sum(packetBytes) 59380
attr interpolationmode none
attr title "packet popped, sum(packetBytes)"
statistic mobilityDrones.quads[0].wlan[0].mac.dcf.channelAccess.pendingQueue queueingTime:histogram
field count 769
field mean 0.00031513084045384
field stddev 0.0019820860426308
field min 0
field max 0.019134
field sum 0.242335616309
field sqrsum 0.0030935822081803
attr interpolationmode none
attr source queueingTime(packetPopped)
attr title "queueing times, histogram"
attr unit s
bin	-inf	0
bin	0	724
bin	0.00032	16
bin	0.00064	5
bin	0.00096	0
bin	0.00128	1
bin	0.0016	1
bin	0.00192	2
bin	0.00224	0
bin	0.00256	1
bin	0.00288	0
bin	0.0032	1
bin	0.00352	0
bin	0.00384	0
bin	0.00416	0
bin	0.00448	1
bin	0.0048	2
bin	0.00512	1
bin	0.00544	1
bin	0.00576	0
bin	0.00608	0
bin	0.0064	0
bin	0.00672	0
bin	0.00704	0
bin	0.00736	1
bin	0.00768	0
bin	0.008	0
bin	0.00832	0
bin	0.00864	1
bin	0.00896	0
bin	0.00928	0
bin	0.0096	0
bin	0.00992	0
bin	0.01024	0
bin	0.01056	0
bin	0.01088	1
bin	0.0112	0
bin	0.01152	0
bin	0.01184	0
bin	0.01216	3
bin	0.01248	0
bin	0.0128	0
bin	0.01312	0
bin	0.01344	0
bin	0.01376	0
bin	0.01408	0
bin	0.0144	0
bin	0.01472	0
bin	0.01504	0
bin	0.01536	0
bin	0.01568	1
bin	0.016	0
bin	0.01632	1
bin	0.01664	0
bin	0.01696	1
bin	0.01728	0
bin	0.0176	0
bin	0.01792	1
bin	0.01824	1
bin	0.01856	1
bin	0.01888	1
bin	0.0192	0
scalar mobilityDrones.quads[0].wlan[0].mac.dcf.channelAccess.pendingQueue queueLength:max 2
attr interpolationmode sample-hold
attr source "count(packetPushed) - count(packetPopped) - count(packetRemoved) - count(packetDropped)"
attr title "queue length, max"
scalar mobilityDrones.quads[0].wlan[0].mac.dcf.channelAccess.pendingQueue queueLength:timeavg 0.00014741131212568
attr interpolationmode sample-hold
attr source "count(packetPushed) - count(packetPopped) - count(packetRemoved) - count(packetDropped)"
attr title "queue length, timeavg"
scalar mobilityDrones.quads[0].wlan[0].mac.dcf.channelAccess.pendingQueue packetPushed:count 769
attr interpolationmode none
attr title "packet pushed, count"
scalar mobilityDrones.quads[0].wlan[0].mac.dcf.channelAccess.pendingQueue packetPushed:sum(packetBytes) 59380
attr interpolationmode none
attr title "packet pushed, sum(packetBytes)"
scalar mobilityDrones.quads[0].wlan[0].mac.dcf.channelAccess.pendingQueue packetDropQueueOverflow:count 0
attr interpolationmode none
attr source packetDropReasonIsQueueOverflow(packetDropped)
attr title "packet drops: queue overflow, count"
scalar mobilityDrones.quads[0].wlan[0].mac.dcf.channelAccess.pendingQueue packetDropQueueOverflow:sum(packetBytes) 0
attr interpolationmode none
attr source packetDropReasonIsQueueOverflow(packetDropped)
attr title "packet drops: queue overflow, sum(packetBytes)"
scalar mobilityDrones.quads[0].wlan[0].mac.dcf.channelAccess.pendingQueue packetRemoved:count 0
attr interpolationmode none
attr title "packets removed, count"
scalar mobilityDrones.quads[0].wlan[0].mac.dcf.channelAccess.pendingQueue packetRemoved:sum(packetBytes) 0
attr interpolationmode none
attr title "packets removed, sum(packetBytes)"
statistic mobilityDrones.quads[0].wlan[0].mac.dcf.channelAccess.inProgressFrames queueingTime:histogram
field count 769
field mean 0.0040692159795774
field stddev 0.01367423459412
field min 5e-005
field max 0.093397
field sum 3.129227088295
field sqrsum 0.15633774412391
attr interpolationmode none
attr source queueingTime(packetDequeued)
attr title "queueing times, histogram"
bin	-inf	0
bin	0	696
bin	0.01	7
bin	0.02	18
bin	0.03	19
bin	0.04	7
bin	0.05	4
bin	0.06	11
bin	0.07	4
bin	0.08	1
bin	0.09	2
bin	0.1	0
bin	0.11	0
bin	0.12	0
bin	0.13	0
bin	0.14	0
bin	0.15	0
bin	0.16	0
bin	0.17	0
bin	0.18	0
bin	0.19	0
bin	0.2	0
bin	0.21	0
bin	0.22	0
bin	0.23	0
bin	0.24	0
bin	0.25	0
bin	0.26	0
bin	0.27	0
bin	0.28	0
bin	0.29	0
bin	0.3	0
bin	0.31	0
bin	0.32	0
bin	0.33	0
bin	0.34	0
bin	0.35	0
bin	0.36	0
bin	0.37	0
bin	0.38	0
bin	0.39	0
bin	0.4	0
bin	0.41	0
bin	0.42	0
bin	0.43	0
bin	0.44	0
bin	0.45	0
bin	0.46	0
bin	0.47	0
bin	0.48	0
bin	0.49	0
bin	0.5	0
bin	0.51	0
scalar mobilityDrones.quads[0].wlan[0].mac.dcf.channelAccess.inProgressFrames queueLength:max 2
attr interpolationmode sample-hold
attr source "count(packetEnqueued) - count(packetDequeued)"
attr title "queue length, max"
scalar mobilityDrones.quads[0].wlan[0].mac.dcf.channelAccess.inProgressFrames queueLength:timeavg 0.0019034902590068
attr interpolationmode sample-hold
attr source "count(packetEnqueued) - count(packetDequeued)"
attr title "queue length, timeavg"
scalar mobilityDrones.quads[0].wlan[0].mac.dcf.channelAccess.contention stateChanged:count 13356
attr interpolationmode none
attr title "contention state changed, count"
scalar mobilityDrones.quads[0].wlan[0].mac.dcf.channelAccess.contention channelAccessGranted:count 1240
attr title "channel access granted, count"
scalar mobilityDrones.quads[0].wlan[0].mac.dcf.channelAccess channelOwnershipChanged:count 2480
attr interpolationmode sample-hold
attr title "channel ownership, count"
scalar mobilityDrones.quads[0].wlan[0].mac.dcf.originatorMacDataService packetAggregated:count 0
attr title "packets aggregated, count"
scalar mobilityDrones.quads[0].wlan[0].mac.dcf.originatorMacDataService packetFragmented:count 0
attr title "packets fragmented, count"
scalar mobilityDrones.quads[0].wlan[0].mac.dcf.recipientMacDataService packetDropDuplicateDetected:count 1
attr interpolationmode none
attr source packetDropReasonIsDuplicateDetected(packetDropped)
attr title "packet drops: duplicate detected, count"
scalar mobilityDrones.quads[0].wlan[0].mac.dcf.recipientMacDataService packetDropDuplicateDetected:sum(packetBytes) 78
attr interpolationmode none
attr source packetDropReasonIsDuplicateDetected(packetDropped)
attr title "packet drops: duplicate detected, sum(packetBytes)"
scalar mobilityDrones.quads[0].wlan[0].mac.dcf.recipientMacDataService packetDeaggregated:count 0
attr title "packets deaggregated, count"
scalar mobilityDrones.quads[0].wlan[0].mac.dcf.recipientMacDataService packetDefragmented:count 351
attr title "packets defragmented, count"
scalar mobilityDrones.quads[0].wlan[0].mac.dcf.recoveryProcedure retryLimitReached:count 72
attr title "retry limit reached, count"
scalar mobilityDrones.quads[0].wlan[0].mac.dcf packetReceivedFromPeer:count 473
attr interpolationmode none
attr title "packets received, count"
scalar mobilityDrones.quads[0].wlan[0].mac.dcf packetReceivedFromPeer:sum(packetBytes) 28632
attr interpolationmode none
attr title "packets received, sum(packetBytes)"
scalar mobilityDrones.quads[0].wlan[0].mac.dcf packetReceivedFromPeerUnicast:count 427
attr interpolationmode none
attr source ieee80211Unicast(packetReceivedFromPeer)
attr title "packets received: unicast, count"
scalar mobilityDrones.quads[0].wlan[0].mac.dcf packetReceivedFromPeerUnicast:sum(packetBytes) 25464
attr interpolationmode none
attr source ieee80211Unicast(packetReceivedFromPeer)
attr title "packets received: unicast, sum(packetBytes)"
scalar mobilityDrones.quads[0].wlan[0].mac.dcf packetReceivedFromPeerMulticast:count 46
attr interpolationmode none
attr source ieee80211Multicast(packetReceivedFromPeer)
attr title "packets received: multicast, count"
scalar mobilityDrones.quads[0].wlan[0].mac.dcf packetReceivedFromPeerMulticast:sum(packetBytes) 3168
attr interpolationmode none
attr source ieee80211Multicast(packetReceivedFromPeer)
attr title "packets received: multicast, sum(packetBytes)"
scalar mobilityDrones.quads[0].wlan[0].mac.dcf packetReceivedFromPeerBroadcast:count 30
attr interpolationmode none
attr source ieee80211Broadcast(packetReceivedFromPeer)
attr title "packets received: broadcast, count"
scalar mobilityDrones.quads[0].wlan[0].mac.dcf packetReceivedFromPeerBroadcast:sum(packetBytes) 1920
attr interpolationmode none
attr source ieee80211Broadcast(packetReceivedFromPeer)
attr title "packets received: broadcast, sum(packetBytes)"
scalar mobilityDrones.quads[0].wlan[0].mac.dcf packetReceivedFromPeerWithRetry:count 13
attr interpolationmode none
attr source ieee80211Retry(packetReceivedFromPeer)
attr title "packets received: with retry, count"
scalar mobilityDrones.quads[0].wlan[0].mac.dcf packetReceivedFromPeerWithRetry:sum(packetBytes) 1000
attr interpolationmode none
attr source ieee80211Retry(packetReceivedFromPeer)
attr title "packets received: with retry, sum(packetBytes)"
scalar mobilityDrones.quads[0].wlan[0].mac.dcf packetReceivedFromPeerWithoutRetry:count 460
attr interpolationmode none
attr source ieee80211NotRetry(packetReceivedFromPeer)
attr title "packets received: without retry, count"
scalar mobilityDrones.quads[0].wlan[0].mac.dcf packetReceivedFromPeerWithoutRetry:sum(packetBytes) 27632
attr interpolationmode none
attr source ieee80211NotRetry(packetReceivedFromPeer)
attr title "packets received: without retry, sum(packetBytes)"
scalar mobilityDrones.quads[0].wlan[0].mac.dcf packetSentToPeer:count 1546
attr interpolationmode none
attr title "packets sent, count"
scalar mobilityDrones.quads[0].wlan[0].mac.dcf packetSentToPeer:sum(packetBytes) 100402
attr interpolationmode none
attr title "packets sent, sum(packetBytes)"
scalar mobilityDrones.quads[0].wlan[0].mac.dcf packetSentToPeerUnicast:count 970
attr interpolationmode none
attr source ieee80211Unicast(packetSentToPeer)
attr title "packets sent: unicast, count"
scalar mobilityDrones.quads[0].wlan[0].mac.dcf packetSentToPeerUnicast:sum(packetBytes) 55656
attr interpolationmode none
attr source ieee80211Unicast(packetSentToPeer)
attr title "packets sent: unicast, sum(packetBytes)"
scalar mobilityDrones.quads[0].wlan[0].mac.dcf packetSentToPeerMulticast:count 576
attr interpolationmode none
attr source ieee80211Multicast(packetSentToPeer)
attr title "packets sent: multicast, count"
scalar mobilityDrones.quads[0].wlan[0].mac.dcf packetSentToPeerMulticast:sum(packetBytes) 44746
attr interpolationmode none
attr source ieee80211Multicast(packetSentToPeer)
attr title "packets sent: multicast, sum(packetBytes)"
scalar mobilityDrones.quads[0].wlan[0].mac.dcf packetSentToPeerBroadcast:count 13
attr interpolationmode none
attr source ieee80211Broadcast(packetSentToPeer)
attr title "packets sent: broadcast , count"
scalar mobilityDrones.quads[0].wlan[0].mac.dcf packetSentToPeerBroadcast:sum(packetBytes) 832
attr interpolationmode none
attr source ieee80211Broadcast(packetSentToPeer)
attr title "packets sent: broadcast , sum(packetBytes)"
scalar mobilityDrones.quads[0].wlan[0].mac.dcf packetSentToPeerWithRetry:count 471
attr interpolationmode none
attr source ieee80211Retry(packetSentToPeer)
attr title "packets sent: with retry, count"
scalar mobilityDrones.quads[0].wlan[0].mac.dcf packetSentToPeerWithRetry:sum(packetBytes) 36738
attr interpolationmode none
attr source ieee80211Retry(packetSentToPeer)
attr title "packets sent: with retry, sum(packetBytes)"
scalar mobilityDrones.quads[0].wlan[0].mac.dcf packetSentToPeerWithoutRetry:count 1075
attr interpolationmode none
attr source ieee80211NotRetry(packetSentToPeer)
attr title "packets sent: without retry, count"
scalar mobilityDrones.quads[0].wlan[0].mac.dcf packetSentToPeerWithoutRetry:sum(packetBytes) 63664
attr interpolationmode none
attr source ieee80211NotRetry(packetSentToPeer)
attr title "packets sent: without retry, sum(packetBytes)"
scalar mobilityDrones.quads[0].wlan[0].mac.dcf packetDrop:count 130
attr interpolationmode none
attr source packetDropped
attr title "packet drops, count"
scalar mobilityDrones.quads[0].wlan[0].mac.dcf packetDrop:sum(packetBytes) 9436
attr interpolationmode none
attr source packetDropped
attr title "packet drops, sum(packetBytes)"
scalar mobilityDrones.quads[0].wlan[0].mac.dcf packetDropNotAddressedToUs:count 57
attr interpolationmode none
attr source packetDropReasonIsNotAddressedToUs(packetDropped)
attr title "packet drops: not addressed to us, count"
scalar mobilityDrones.quads[0].wlan[0].mac.dcf packetDropNotAddressedToUs:sum(packetBytes) 3742
attr interpolationmode none
attr source packetDropReasonIsNotAddressedToUs(packetDropped)
attr title "packet drops: not addressed to us, sum(packetBytes)"
scalar mobilityDrones.quads[0].wlan[0].mac.dcf packetDropQueueOverflow:count 0
attr interpolationmode none
attr source packetDropReasonIsQueueOverflow(packetDropped)
attr title "packet drops: queue overflow, count"
scalar mobilityDrones.quads[0].wlan[0].mac.dcf packetDropQueueOverflow:sum(packetBytes) 0
attr interpolationmode none
attr source packetDropReasonIsQueueOverflow(packetDropped)
attr title "packet drops: queue overflow, sum(packetBytes)"
scalar mobilityDrones.quads[0].wlan[0].mac.dcf packetDropRetryLimitReached:count 72
attr interpolationmode none
attr source packetDropReasonIsRetryLimitReached(packetDropped)
attr title "packet drops: retry limit reached, count"
scalar mobilityDrones.quads[0].wlan[0].mac.dcf packetDropRetryLimitReached:sum(packetBytes) 5616
attr interpolationmode none
attr source packetDropReasonIsRetryLimitReached(packetDropped)
attr title "packet drops: retry limit reached, sum(packetBytes)"
scalar mobilityDrones.quads[0].wlan[0].mac.dcf linkBroken:count 72
attr interpolationmode none
attr title "link breaks, count"
scalar mobilityDrones.quads[0].wlan[0].mac.dcf frameSequenceFinished:count 1240
attr title "finished frame sequences, count"
statistic mobilityDrones.quads[0].wlan[0].mac.dcf frameSequenceDuration:histogram
field count 1240
field mean 8.2301200695967e-005
field stddev 2.6656507965925e-005
field min 5e-005
field max 0.000109
field sum 0.102053488863
field sqrsum 9.2795201762227e-006
attr source frameSequenceDuration(frameSequenceFinished)
attr title "frame sequence durations, histogram"
bin	-inf	0
bin	0	1240
bin	0.01	0
bin	0.02	0
bin	0.03	0
bin	0.04	0
bin	0.05	0
bin	0.06	0
bin	0.07	0
bin	0.08	0
bin	0.09	0
bin	0.1	0
bin	0.11	0
bin	0.12	0
bin	0.13	0
bin	0.14	0
bin	0.15	0
bin	0.16	0
bin	0.17	0
bin	0.18	0
bin	0.19	0
bin	0.2	0
bin	0.21	0
bin	0.22	0
bin	0.23	0
bin	0.24	0
bin	0.25	0
bin	0.26	0
bin	0.27	0
bin	0.28	0
bin	0.29	0
bin	0.3	0
bin	0.31	0
bin	0.32	0
bin	0.33	0
bin	0.34	0
bin	0.35	0
bin	0.36	0
bin	0.37	0
bin	0.38	0
bin	0.39	0
bin	0.4	0
bin	0.41	0
bin	0.42	0
bin	0.43	0
bin	0.44	0
bin	0.45	0
bin	0.46	0
bin	0.47	0
bin	0.48	0
bin	0.49	0
bin	0.5	0
bin	0.51	0
statistic mobilityDrones.quads[0].wlan[0].mac.dcf frameSequenceNumPackets:histogram
field count 1240
field mean 1.5354838709677
field stddev 0.49894053182696
field min 1
field max 2
field sum 1904
field sqrsum 3232
attr source frameSequenceNumPackets(frameSequenceFinished)
attr title "frame sequences: number of packets, histogram"
bin	-inf	0
bin	0	0
bin	1	576
bin	2	664
bin	3	0
scalar mobilityDrones.quads[0].wlan[0].mac packetReceivedFromLower:count 577
attr interpolationmode none
attr title "packets received from lower layer, count"
scalar mobilityDrones.quads[0].wlan[0].mac packetReceivedFromLower:sum(packetBytes) 36012
attr interpolationmode none
attr title "packets received from lower layer, sum(packetBytes)"
scalar mobilityDrones.quads[0].wlan[0].mac packetSentToLower:count 1546
attr interpolationmode none
attr title "packets sent to lower layer, count"
scalar mobilityDrones.quads[0].wlan[0].mac packetSentToLower:sum(packetBytes) 100402
attr interpolationmode none
attr title "packets sent to lower layer, sum(packetBytes)"
scalar mobilityDrones.quads[0].wlan[0].mac packetReceivedFromUpper:count 769
attr interpolationmode none
attr title "packets received from upper layer, count"
scalar mobilityDrones.quads[0].wlan[0].mac packetReceivedFromUpper:sum(packetBytes) 37848
attr interpolationmode none
attr title "packets received from upper layer, sum(packetBytes)"
scalar mobilityDrones.quads[0].wlan[0].mac packetSentToUpper:count 351
attr interpolationmode none
attr title "packets sent to upper layer, count"
scalar mobilityDrones.quads[0].wlan[0].mac packetSentToUpper:sum(packetBytes) 17032
attr interpolationmode none
attr title "packets sent to upper layer, sum(packetBytes)"
scalar mobilityDrones.quads[0].wlan[0].mac packetDrop:count 177
attr interpolationmode none
attr source packetDropped
attr title "packet drops, count"
scalar mobilityDrones.quads[0].wlan[0].mac packetDrop:sum(packetBytes) 13074
attr interpolationmode none
attr source packetDropped
attr title "packet drops, sum(packetBytes)"
scalar mobilityDrones.quads[0].wlan[0].mac packetDropIncorrectlyReceived:count 47
attr interpolationmode none
attr source packetDropReasonIsIncorrectlyReceived(packetDropped)
attr title "packet drops: incorrectly received, count"
scalar mobilityDrones.quads[0].wlan[0].mac packetDropIncorrectlyReceived:sum(packetBytes) 3638
attr interpolationmode none
attr source packetDropReasonIsIncorrectlyReceived(packetDropped)
attr title "packet drops: incorrectly received, sum(packetBytes)"
scalar mobilityDrones.quads[0].wlan[0].mac packetDropNotAddressedToUs:count 57
attr interpolationmode none
attr source packetDropReasonIsNotAddressedToUs(packetDropped)
attr title "packet drops: not addressed to us, count"
scalar mobilityDrones.quads[0].wlan[0].mac packetDropNotAddressedToUs:sum(packetBytes) 3742
attr interpolationmode none
attr source packetDropReasonIsNotAddressedToUs(packetDropped)
attr title "packet drops: not addressed to us, sum(packetBytes)"
scalar mobilityDrones.quads[0].wlan[0].mac packetDropQueueOverflow:count 0
attr interpolationmode none
attr source packetDropReasonIsQueueOverflow(packetDropped)
attr title "packet drops: queue overflow, count"
scalar mobilityDrones.quads[0].wlan[0].mac packetDropQueueOverflow:sum(packetBytes) 0
attr interpolationmode none
attr source packetDropReasonIsQueueOverflow(packetDropped)
attr title "packet drops: queue overflow, sum(packetBytes)"
scalar mobilityDrones.quads[0].wlan[0].mac packetDropRetryLimitReached:count 72
attr interpolationmode none
attr source packetDropReasonIsRetryLimitReached(packetDropped)
attr title "packet drops: retry limit reached, count"
scalar mobilityDrones.quads[0].wlan[0].mac packetDropRetryLimitReached:sum(packetBytes) 5616
attr interpolationmode none
attr source packetDropReasonIsRetryLimitReached(packetDropped)
attr title "packet drops: retry limit reached, sum(packetBytes)"
scalar mobilityDrones.quads[0].wlan[0].mac packetDropDuplicateDetected:count 1
attr interpolationmode none
attr source packetDropReasonIsDuplicateDetected(packetDropped)
attr title "packet drops: duplicate detected, count"
scalar mobilityDrones.quads[0].wlan[0].mac packetDropDuplicateDetected:sum(packetBytes) 78
attr interpolationmode none
attr source packetDropReasonIsDuplicateDetected(packetDropped)
attr title "packet drops: duplicate detected, sum(packetBytes)"
scalar mobilityDrones.quads[0].wlan[0].mac packetDropOther:count 0
attr interpolationmode none
attr source packetDropReasonIsOther(packetDropped)
attr title "packet drops: other, count"
scalar mobilityDrones.quads[0].wlan[0].mac packetDropOther:sum(packetBytes) 0
attr interpolationmode none
attr source packetDropReasonIsOther(packetDropped)
attr title "packet drops: other, sum(packetBytes)"
scalar mobilityDrones.quads[0].wlan[0].mac linkBroken:count 72
attr interpolationmode none
attr title "link breaks, count"
statistic mobilityDrones.quads[0].wlan[0].radio minSnir:histogram
field count 577
field mean 367.6824104263
field stddev 948.04841974549
field min 14.545284637449
field max 6605.5007169123
field sum 212152.75081598
field sqrsum 595711219.15937
attr source minimumSnir(packetSentToUpper)
attr title "Min SNIR, histogram"
bin	-inf	0
bin	0	426
bin	100	18
bin	200	15
bin	300	21
bin	400	12
bin	500	10
bin	600	4
bin	700	4
bin	800	8
bin	900	7
bin	1000	3
bin	1100	1
bin	1200	3
bin	1300	1
bin	1400	0
bin	1500	2
bin	1600	5
bin	1700	2
bin	1800	0
bin	1900	0
bin	2000	2
bin	2100	1
bin	2200	1
bin	2300	4
bin	2400	0
bin	2500	0
bin	2600	0
bin	2700	0
bin	2800	3
bin	2900	1
bin	3000	0
bin	3100	0
bin	3200	0
bin	3300	0
bin	3400	1
bin	3500	1
bin	3600	4
bin	3700	3
bin	3800	3
bin	3900	0
bin	4000	0
bin	4100	0
bin	4200	0
bin	4300	1
bin	4400	0
bin	4500	1
bin	4600	1
bin	4700	2
bin	4800	2
bin	4900	1
bin	5000	0
bin	5100	0
bin	5200	0
bin	5300	0
bin	5400	0
bin	5500	0
bin	5600	0
bin	5700	0
bin	5800	1
bin	5900	0
bin	6000	0
bin	6100	0
bin	6200	1
bin	6300	0
bin	6400	0
bin	6500	0
bin	6600	1
bin	6700	0
bin	6800	0
bin	6900	0
bin	7000	0
bin	7100	0
bin	7200	0
bin	7300	0
bin	7400	0
bin	7500	0
bin	7600	0
bin	7700	0
bin	7800	0
bin	7900	0
bin	8000	0
bin	8100	0
bin	8200	0
bin	8300	0
statistic mobilityDrones.quads[0].wlan[0].radio packetErrorRate:histogram
field count 577
field mean 0.071498245355793
field stddev 0.19793074128558
field min 0
field max 0.87806919691167
field sum 41.254487570293
field sqrsum 25.515332601543
attr source packetErrorRate(packetSentToUpper)
attr title "Packet error rate, histogram"
bin	-inf	0
bin	0	459
bin	0.01	10
bin	0.02	7
bin	0.03	5
bin	0.04	4
bin	0.05	4
bin	0.06	0
bin	0.07	3
bin	0.08	0
bin	0.09	1
bin	0.1	2
bin	0.11	1
bin	0.12	2
bin	0.13	2
bin	0.14	1
bin	0.15	0
bin	0.16	3
bin	0.17	3
bin	0.18	6
bin	0.19	2
bin	0.2	5
bin	0.21	5
bin	0.22	2
bin	0.23	1
bin	0.24	0
bin	0.25	0
bin	0.26	0
bin	0.27	0
bin	0.28	0
bin	0.29	0
bin	0.3	0
bin	0.31	0
bin	0.32	2
bin	0.33	2
bin	0.34	2
bin	0.35	0
bin	0.36	0
bin	0.37	0
bin	0.38	0
bin	0.39	0
bin	0.4	0
bin	0.41	0
bin	0.42	0
bin	0.43	2
bin	0.44	0
bin	0.45	0
bin	0.46	0
bin	0.47	0
bin	0.48	0
bin	0.49	0
bin	0.5	0
bin	0.51	0
bin	0.52	0
bin	0.53	1
bin	0.54	1
bin	0.55	0
bin	0.56	0
bin	0.57	0
bin	0.58	0
bin	0.59	0
bin	0.6	0
bin	0.61	0
bin	0.62	1
bin	0.63	0
bin	0.64	0
bin	0.65	5
bin	0.66	3
bin	0.67	1
bin	0.68	2
bin	0.69	1
bin	0.7	0
bin	0.71	0
bin	0.72	0
bin	0.73	1
bin	0.74	2
bin	0.75	0
bin	0.76	3
bin	0.77	0
bin	0.78	7
bin	0.79	4
bin	0.8	0
bin	0.81	1
bin	0.82	0
bin	0.83	1
bin	0.84	0
bin	0.85	1
bin	0.86	1
bin	0.87	5
bin	0.88	0
statistic mobilityDrones.quads[0].wlan[0].radio bitErrorRate:histogram
field count 0
field mean nan
field stddev nan
field min nan
field max nan
field sum 0
field sqrsum 0
attr source bitErrorRate(packetSentToUpper)
attr title "Bit error rate, histogram"
bin	-inf	0
bin	0	0
bin	1	0
statistic mobilityDrones.quads[0].wlan[0].radio symbolErrorRate:histogram
field count 0
field mean nan
field stddev nan
field min nan
field max nan
field sum 0
field sqrsum 0
attr source symbolErrorRate(packetSentToUpper)
attr title "Symbol error rate, histogram"
bin	-inf	0
bin	0	0
bin	1	0
scalar mobilityDrones.quads[0].wlan[0].radio transmissionState:count 6184
attr interpolationmode sample-hold
attr source transmissionStateChanged
attr title "Radio transmission state, count"
scalar mobilityDrones.quads[0].wlan[0].radio receptionState:count 4315
attr interpolationmode sample-hold
attr source receptionStateChanged
attr title "Radio reception state, count"
scalar mobilityDrones.quads[0].wlan[0].radio radioMode:count 3095
attr interpolationmode sample-hold
attr source radioModeChanged
attr title "Radio mode, count"
statistic mobilityDrones.quads[0].wlan[0].radio radioChannel:histogram
field count 1
field mean 0
field stddev nan
field min 0
field max 0
field sum 0
field sqrsum 0
attr interpolationmode sample-hold
attr source radioChannelChanged
attr title "Radio channel, histogram"
bin	-inf	0
bin	-0.5	0
bin	-0.48	0
bin	-0.46	0
bin	-0.44	0
bin	-0.42	0
bin	-0.4	0
bin	-0.38	0
bin	-0.36	0
bin	-0.34	0
bin	-0.32	0
bin	-0.3	0
bin	-0.28	0
bin	-0.26	0
bin	-0.24	0
bin	-0.22	0
bin	-0.2	0
bin	-0.18	0
bin	-0.16	0
bin	-0.14	0
bin	-0.12	0
bin	-0.1	0
bin	-0.08	0
bin	-0.06	0
bin	-0.04	0
bin	-0.02	0
bin	0	1
bin	0.02	0
bin	0.04	0
bin	0.06	0
bin	0.08	0
bin	0.1	0
bin	0.12	0
bin	0.14	0
bin	0.16	0
bin	0.18	0
bin	0.2	0
bin	0.22	0
bin	0.24	0
bin	0.26	0
bin	0.28	0
bin	0.3	0
bin	0.32	0
bin	0.34	0
bin	0.36	0
bin	0.38	0
bin	0.4	0
bin	0.42	0
bin	0.44	0
bin	0.46	0
bin	0.48	0
bin	0.5	0
scalar mobilityDrones.quads[0].ipv4.ip packetDropAddressResolutionFailed:count 5
attr interpolationmode none
attr source packetDropReasonIsAddressResolutionFailed(packetDropped)
attr title "packet drop: address resolution failed, count"
scalar mobilityDrones.quads[0].ipv4.ip packetDropAddressResolutionFailed:sum(packetBytes) 210
attr interpolationmode none
attr source packetDropReasonIsAddressResolutionFailed(packetDropped)
attr title "packet drop: address resolution failed, sum(packetBytes)"
scalar mobilityDrones.quads[0].ipv4.ip packetDropHopLimitReached:count 0
attr interpolationmode none
attr source packetDropReasonIsHopLimitReached(packetDropped)
attr title "packet drop: hop limit reached, count"
scalar mobilityDrones.quads[0].ipv4.ip packetDropHopLimitReached:sum(packetBytes) 0
attr interpolationmode none
attr source packetDropReasonIsHopLimitReached(packetDropped)
attr title "packet drop: hop limit reached, sum(packetBytes)"
scalar mobilityDrones.quads[0].ipv4.ip packetDropForwardingDisabled:count 0
attr interpolationmode none
attr source packetDropReasonIsForwardingDisabled(packetDropped)
attr title "packet drop: forwarding disabled, count"
scalar mobilityDrones.quads[0].ipv4.ip packetDropForwardingDisabled:sum(packetBytes) 0
attr interpolationmode none
attr source packetDropReasonIsForwardingDisabled(packetDropped)
attr title "packet drop: forwarding disabled, sum(packetBytes)"
scalar mobilityDrones.quads[0].ipv4.ip packetDropNoInterfaceFound:count 0
attr interpolationmode none
attr source packetDropReasonIsNoInterfaceFound(packetDropped)
attr title "packet drop: no interface found, count"
scalar mobilityDrones.quads[0].ipv4.ip packetDropNoInterfaceFound:sum(packetBytes) 0
attr interpolationmode none
attr source packetDropReasonIsNoInterfaceFound(packetDropped)
attr title "packet drop: no interface found, sum(packetBytes)"
scalar mobilityDrones.quads[0].ipv4.ip packetDropNoRouteFound:count 0
attr interpolationmode none
attr source packetDropReasonIsNoRouteFound(packetDropped)
attr title "packet drop: no route found, count"
scalar mobilityDrones.quads[0].ipv4.ip packetDropNoRouteFound:sum(packetBytes) 0
attr interpolationmode none
attr source packetDropReasonIsNoRouteFound(packetDropped)
attr title "packet drop: no route found, sum(packetBytes)"
scalar mobilityDrones.quads[0].ipv4.ip packetDropUndefined:count 0
attr interpolationmode none
attr source packetDropReasonIsUndefined(packetDropped)
attr title "packet drop: undefined, count"
scalar mobilityDrones.quads[0].ipv4.ip packetDropUndefined:sum(packetBytes) 0
attr interpolationmode none
attr source packetDropReasonIsUndefined(packetDropped)
attr title "packet drop: undefined, sum(packetBytes)"
scalar mobilityDrones.quads[0].ipv4.arp arpReplySent:count 30
attr source arpReplySent
attr title "ARP replies sent, count"
scalar mobilityDrones.quads[0].ipv4.arp arpReplySent:sum(packetBytes) 840
attr source arpReplySent
attr title "ARP replies sent, sum(packetBytes)"
scalar mobilityDrones.quads[0].ipv4.arp arpRequestSent:count 13
attr source arpRequestSent
attr title "ARP request sent, count"
scalar mobilityDrones.quads[0].ipv4.arp arpRequestSent:sum(packetBytes) 364
attr source arpRequestSent
attr title "ARP request sent, sum(packetBytes)"
scalar mobilityDrones.quads[0].ipv4.arp arpResolutionFailed:count 2
attr title "ARP failed resolutions, count"
scalar mobilityDrones.quads[0].ipv4.arp arpResolutionCompleted:count 37
attr title "ARP completed resolutions, count"
scalar mobilityDrones.quads[0].ipv4.arp arpResolutionInitiated:count 9
attr title "ARP initiated resolutions, count"
scalar mobilityDrones.quads[0].udp packetReceived:count 877
attr interpolationmode none
attr source packetReceived
attr title "packets received, count"
scalar mobilityDrones.quads[0].udp packetReceived:sum(packetBytes) 19294
attr interpolationmode none
attr source packetReceived
attr title "packets received, sum(packetBytes)"
scalar mobilityDrones.quads[0].udp packetSent:count 731
attr interpolationmode none
attr source packetSent
attr title "packets sent, count"
scalar mobilityDrones.quads[0].udp packetSent:sum(packetBytes) 16082
attr interpolationmode none
attr source packetSent
attr title "packets sent, sum(packetBytes)"
scalar mobilityDrones.quads[0].udp passedUpPk:count 877
attr interpolationmode none
attr source packetSentToUpper
attr title "packets passed up, count"
scalar mobilityDrones.quads[0].udp droppedPkWrongPort:count 0
attr interpolationmode none
attr source packetDropReasonIsNoPortFound(packetDropped)
attr title "packets dropped (wrong port), count"
scalar mobilityDrones.quads[0].udp droppedPkBadChecksum:count 0
attr interpolationmode none
attr source packetDropReasonIsIncorrectlyReceived(packetDropped)
attr title "packets dropped (checksum error), count"
scalar mobilityDrones.quads[0].app[0] "packets sent" 731
scalar mobilityDrones.quads[0].app[0] "packets received" 0
scalar mobilityDrones.quads[0].app[0] packetReceived:count 313
attr interpolationmode none
attr source packetReceived
attr title "packets received, count"
scalar mobilityDrones.quads[0].app[0] packetReceived:sum(packetBytes) 4382
attr interpolationmode none
attr source packetReceived
attr title "packets received, sum(packetBytes)"
statistic mobilityDrones.quads[0].app[0] rcvdPkLifetime:stats
field count 313
field mean 0.0043687065127764
field stddev 0.056608720041476
field min 5.4074417e-005
field max 1.00094910531
field sum 1.367405138499
field sqrsum 1.0057925133712
attr interpolationmode none
attr source dataAge(packetReceived)
attr title "received packet lifetime, stats"
attr unit s
scalar mobilityDrones.quads[0].app[0] packetSent:count 731
attr interpolationmode none
attr source packetSent
attr title "packets sent, count"
scalar mobilityDrones.quads[0].app[0] packetSent:sum(packetBytes) 10234
attr interpolationmode none
attr source packetSent
attr title "packets sent, sum(packetBytes)"
scalar mobilityDrones.quads[1].lo[0].lo rcvdPkFromHl:count 542
attr interpolationmode none
attr source packetReceivedFromUpper
attr title "packets received from higher layer, count"
scalar mobilityDrones.quads[1].lo[0].lo rcvdPkFromHl:sum(packetBytes) 22764
attr interpolationmode none
attr source packetReceivedFromUpper
attr title "packets received from higher layer, sum(packetBytes)"
scalar mobilityDrones.quads[1].lo[0].lo passedUpPk:count 542
attr interpolationmode none
attr source packetSentToUpper
attr title "packets passed to higher layer, count"
scalar mobilityDrones.quads[1].lo[0].lo passedUpPk:sum(packetBytes) 22764
attr interpolationmode none
attr source packetSentToUpper
attr title "packets passed to higher layer, sum(packetBytes)"
scalar mobilityDrones.quads[1].wlan[0].mac.dcf.channelAccess.pendingQueue packetPopped:count 926
attr interpolationmode none
attr title "packet popped, count"
scalar mobilityDrones.quads[1].wlan[0].mac.dcf.channelAccess.pendingQueue packetPopped:sum(packetBytes) 71528
attr interpolationmode none
attr title "packet popped, sum(packetBytes)"
statistic mobilityDrones.quads[1].wlan[0].mac.dcf.channelAccess.pendingQueue queueingTime:histogram
field count 926
field mean 0.00067205788099352
field stddev 0.0029445838120368
field min 0
field max 0.02051
field sum 0.6223255978
field sqrsum 0.0084385196116965
attr interpolationmode none
attr source queueingTime(packetPopped)
attr title "queueing times, histogram"
attr unit s
bin	-inf	0
bin	-0.5	0
bin	-0.48	0
bin	-0.46	0
bin	-0.44	0
bin	-0.42	0
bin	-0.4	0
bin	-0.38	0
bin	-0.36	0
bin	-0.34	0
bin	-0.32	0
bin	-0.3	0
bin	-0.28	0
bin	-0.26	0
bin	-0.24	0
bin	-0.22	0
bin	-0.2	0
bin	-0.18	0
bin	-0.16	0
bin	-0.14	0
bin	-0.12	0
bin	-0.1	0
bin	-0.08	0
bin	-0.06	0
bin	-0.04	0
bin	-0.02	0
bin	0	921
bin	0.02	5
bin	0.04	0
bin	0.06	0
bin	0.08	0
bin	0.1	0
bin	0.12	0
bin	0.14	0
bin	0.16	0
bin	0.18	0
bin	0.2	0
bin	0.22	0
bin	0.24	0
bin	0.26	0
bin	0.28	0
bin	0.3	0
bin	0.32	0
bin	0.34	0
bin	0.36	0
bin	0.38	0
bin	0.4	0
bin	0.42	0
bin	0.44	0
bin	0.46	0
bin	0.48	0
bin	0.5	0
scalar mobilityDrones.quads[1].wlan[0].mac.dcf.channelAccess.pendingQueue queueLength:max 3
attr interpolationmode sample-hold
attr source "count(packetPushed) - count(packetPopped) - count(packetRemoved) - count(packetDropped)"
attr title "queue length, max"
scalar mobilityDrones.quads[1].wlan[0].mac.dcf.channelAccess.pendingQueue queueLength:timeavg 0.00038781652113527
attr interpolationmode sample-hold
attr source "count(packetPushed) - count(packetPopped) - count(packetRemoved) - count(packetDropped)"
attr title "queue length, timeavg"
scalar mobilityDrones.quads[1].wlan[0].mac.dcf.channelAccess.pendingQueue packetPushed:count 926
attr interpolationmode none
attr title "packet pushed, count"
scalar mobilityDrones.quads[1].wlan[0].mac.dcf.channelAccess.pendingQueue packetPushed:sum(packetBytes) 71528
attr interpolationmode none
attr title "packet pushed, sum(packetBytes)"
scalar mobilityDrones.quads[1].wlan[0].mac.dcf.channelAccess.pendingQueue packetDropQueueOverflow:count 0
attr interpolationmode none
attr source packetDropReasonIsQueueOverflow(packetDropped)
attr title "packet drops: queue overflow, count"
scalar mobilityDrones.quads[1].wlan[0].mac.dcf.channelAccess.pendingQueue packetDropQueueOverflow:sum(packetBytes) 0
attr interpolationmode none
attr source packetDropReasonIsQueueOverflow(packetDropped)
attr title "packet drops: queue overflow, sum(packetBytes)"
scalar mobilityDrones.quads[1].wlan[0].mac.dcf.channelAccess.pendingQueue packetRemoved:count 0
attr interpolationmode none
attr title "packets removed, count"
scalar mobilityDrones.quads[1].wlan[0].mac.dcf.channelAccess.pendingQueue packetRemoved:sum(packetBytes) 0
attr interpolationmode none
attr title "packets removed, sum(packetBytes)"
statistic mobilityDrones.quads[1].wlan[0].mac.dcf.channelAccess.inProgressFrames queueingTime:histogram
field count 926
field mean 0.008506865330039
field stddev 0.018781693545066
field min 5e-005
field max 0.097937
field sum 7.8773572956161
field sqrsum 0.39330722915962
attr interpolationmode none
attr source queueingTime(packetDequeued)
attr title "queueing times, histogram"
bin	-inf	0
bin	0	744
bin	0.01	14
bin	0.02	35
bin	0.03	45
bin	0.04	28
bin	0.05	20
bin	0.06	23
bin	0.07	14
bin	0.08	1
bin	0.09	2
bin	0.1	0
bin	0.11	0
bin	0.12	0
bin	0.13	0
bin	0.14	0
bin	0.15	0
bin	0.16	0
bin	0.17	0
bin	0.18	0
bin	0.19	0
bin	0.2	0
bin	0.21	0
bin	0.22	0
bin	0.23	0
bin	0.24	0
bin	0.25	0
bin	0.26	0
bin	0.27	0
bin	0.28	0
bin	0.29	0
bin	0.3	0
bin	0.31	0
bin	0.32	0
bin	0.33	0
bin	0.34	0
bin	0.35	0
bin	0.36	0
bin	0.37	0
bin	0.38	0
bin	0.39	0
bin	0.4	0
bin	0.41	0
bin	0.42	0
bin	0.43	0
bin	0.44	0
bin	0.45	0
bin	0.46	0
bin	0.47	0
bin	0.48	0
bin	0.49	0
bin	0.5	0
bin	0.51	0
scalar mobilityDrones.quads[1].wlan[0].mac.dcf.channelAccess.inProgressFrames queueLength:max 2
attr interpolationmode sample-hold
attr source "count(packetEnqueued) - count(packetDequeued)"
attr title "queue length, max"
scalar mobilityDrones.quads[1].wlan[0].mac.dcf.channelAccess.inProgressFrames queueLength:timeavg 0.004908956521996
attr interpolationmode sample-hold
attr source "count(packetEnqueued) - count(packetDequeued)"
attr title "queue length, timeavg"
scalar mobilityDrones.quads[1].wlan[0].mac.dcf.channelAccess.contention stateChanged:count 20712
attr interpolationmode none
attr title "contention state changed, count"
scalar mobilityDrones.quads[1].wlan[0].mac.dcf.channelAccess.contention channelAccessGranted:count 2032
attr title "channel access granted, count"
scalar mobilityDrones.quads[1].wlan[0].mac.dcf.channelAccess channelOwnershipChanged:count 4064
attr interpolationmode sample-hold
attr title "channel ownership, count"
scalar mobilityDrones.quads[1].wlan[0].mac.dcf.originatorMacDataService packetAggregated:count 0
attr title "packets aggregated, count"
scalar mobilityDrones.quads[1].wlan[0].mac.dcf.originatorMacDataService packetFragmented:count 0
attr title "packets fragmented, count"
scalar mobilityDrones.quads[1].wlan[0].mac.dcf.recipientMacDataService packetDropDuplicateDetected:count 2
attr interpolationmode none
attr source packetDropReasonIsDuplicateDetected(packetDropped)
attr title "packet drops: duplicate detected, count"
scalar mobilityDrones.quads[1].wlan[0].mac.dcf.recipientMacDataService packetDropDuplicateDetected:sum(packetBytes) 156
attr interpolationmode none
attr source packetDropReasonIsDuplicateDetected(packetDropped)
attr title "packet drops: duplicate detected, sum(packetBytes)"
scalar mobilityDrones.quads[1].wlan[0].mac.dcf.recipientMacDataService packetDeaggregated:count 0
attr title "packets deaggregated, count"
scalar mobilityDrones.quads[1].wlan[0].mac.dcf.recipientMacDataService packetDefragmented:count 456
attr title "packets defragmented, count"
scalar mobilityDrones.quads[1].wlan[0].mac.dcf.recoveryProcedure retryLimitReached:count 178
attr title "retry limit reached, count"
scalar mobilityDrones.quads[1].wlan[0].mac.dcf packetReceivedFromPeer:count 647
attr interpolationmode none
attr title "packets received, count"
scalar mobilityDrones.quads[1].wlan[0].mac.dcf packetReceivedFromPeer:sum(packetBytes) 37698
attr interpolationmode none
attr title "packets received, sum(packetBytes)"
scalar mobilityDrones.quads[1].wlan[0].mac.dcf packetReceivedFromPeerUnicast:count 568
attr interpolationmode none
attr source ieee80211Unicast(packetReceivedFromPeer)
attr title "packets received: unicast, count"
scalar mobilityDrones.quads[1].wlan[0].mac.dcf packetReceivedFromPeerUnicast:sum(packetBytes) 32068
attr interpolationmode none
attr source ieee80211Unicast(packetReceivedFromPeer)
attr title "packets received: unicast, sum(packetBytes)"
scalar mobilityDrones.quads[1].wlan[0].mac.dcf packetReceivedFromPeerMulticast:count 79
attr interpolationmode none
attr source ieee80211Multicast(packetReceivedFromPeer)
attr title "packets received: multicast, count"
scalar mobilityDrones.quads[1].wlan[0].mac.dcf packetReceivedFromPeerMulticast:sum(packetBytes) 5630
attr interpolationmode none
attr source ieee80211Multicast(packetReceivedFromPeer)
attr title "packets received: multicast, sum(packetBytes)"
scalar mobilityDrones.quads[1].wlan[0].mac.dcf packetReceivedFromPeerBroadcast:count 38
attr interpolationmode none
attr source ieee80211Broadcast(packetReceivedFromPeer)
attr title "packets received: broadcast, count"
scalar mobilityDrones.quads[1].wlan[0].mac.dcf packetReceivedFromPeerBroadcast:sum(packetBytes) 2432
attr interpolationmode none
attr source ieee80211Broadcast(packetReceivedFromPeer)
attr title "packets received: broadcast, sum(packetBytes)"
scalar mobilityDrones.quads[1].wlan[0].mac.dcf packetReceivedFromPeerWithRetry:count 48
attr interpolationmode none
attr source ieee80211Retry(packetReceivedFromPeer)
attr title "packets received: with retry, count"
scalar mobilityDrones.quads[1].wlan[0].mac.dcf packetReceivedFromPeerWithRetry:sum(packetBytes) 3730
attr interpolationmode none
attr source ieee80211Retry(packetReceivedFromPeer)
attr title "packets received: with retry, sum(packetBytes)"
scalar mobilityDrones.quads[1].wlan[0].mac.dcf packetReceivedFromPeerWithoutRetry:count 599
attr interpolationmode none
attr source ieee80211NotRetry(packetReceivedFromPeer)
attr title "packets received: without retry, count"
scalar mobilityDrones.quads[1].wlan[0].mac.dcf packetReceivedFromPeerWithoutRetry:sum(packetBytes) 33968
attr interpolationmode none
attr source ieee80211NotRetry(packetReceivedFromPeer)
attr title "packets received: without retry, sum(packetBytes)"
scalar mobilityDrones.quads[1].wlan[0].mac.dcf packetSentToPeer:count 2411
attr interpolationmode none
attr title "packets sent, count"
scalar mobilityDrones.quads[1].wlan[0].mac.dcf packetSentToPeer:sum(packetBytes) 163074
attr interpolationmode none
attr title "packets sent, sum(packetBytes)"
scalar mobilityDrones.quads[1].wlan[0].mac.dcf packetSentToPeerUnicast:count 1852
attr interpolationmode none
attr source ieee80211Unicast(packetSentToPeer)
attr title "packets sent: unicast, count"
scalar mobilityDrones.quads[1].wlan[0].mac.dcf packetSentToPeerUnicast:sum(packetBytes) 119710
attr interpolationmode none
attr source ieee80211Unicast(packetSentToPeer)
attr title "packets sent: unicast, sum(packetBytes)"
scalar mobilityDrones.quads[1].wlan[0].mac.dcf packetSentToPeerMulticast:count 559
attr interpolationmode none
attr source ieee80211Multicast(packetSentToPeer)
attr title "packets sent: multicast, count"
scalar mobilityDrones.quads[1].wlan[0].mac.dcf packetSentToPeerMulticast:sum(packetBytes) 43364
attr interpolationmode none
attr source ieee80211Multicast(packetSentToPeer)
attr title "packets sent: multicast, sum(packetBytes)"
scalar mobilityDrones.quads[1].wlan[0].mac.dcf packetSentToPeerBroadcast:count 17
attr interpolationmode none
attr source ieee80211Broadcast(packetSentToPeer)
attr title "packets sent: broadcast , count"
scalar mobilityDrones.quads[1].wlan[0].mac.dcf packetSentToPeerBroadcast:sum(packetBytes) 1088
attr interpolationmode none
attr source ieee80211Broadcast(packetSentToPeer)
attr title "packets sent: broadcast , sum(packetBytes)"
scalar mobilityDrones.quads[1].wlan[0].mac.dcf packetSentToPeerWithRetry:count 1106
attr interpolationmode none
attr source ieee80211Retry(packetSentToPeer)
attr title "packets sent: with retry, count"
scalar mobilityDrones.quads[1].wlan[0].mac.dcf packetSentToPeerWithRetry:sum(packetBytes) 86240
attr interpolationmode none
attr source ieee80211Retry(packetSentToPeer)
attr title "packets sent: with retry, sum(packetBytes)"
scalar mobilityDrones.quads[1].wlan[0].mac.dcf packetSentToPeerWithoutRetry:count 1305
attr interpolationmode none
attr source ieee80211NotRetry(packetSentToPeer)
attr title "packets sent: without retry, count"
scalar mobilityDrones.quads[1].wlan[0].mac.dcf packetSentToPeerWithoutRetry:sum(packetBytes) 76834
attr interpolationmode none
attr source ieee80211NotRetry(packetSentToPeer)
attr title "packets sent: without retry, sum(packetBytes)"
scalar mobilityDrones.quads[1].wlan[0].mac.dcf packetDrop:count 213
attr interpolationmode none
attr source packetDropped
attr title "packet drops, count"
scalar mobilityDrones.quads[1].wlan[0].mac.dcf packetDrop:sum(packetBytes) 15370
attr interpolationmode none
attr source packetDropped
attr title "packet drops, sum(packetBytes)"
scalar mobilityDrones.quads[1].wlan[0].mac.dcf packetDropNotAddressedToUs:count 33
attr interpolationmode none
attr source packetDropReasonIsNotAddressedToUs(packetDropped)
attr title "packet drops: not addressed to us, count"
scalar mobilityDrones.quads[1].wlan[0].mac.dcf packetDropNotAddressedToUs:sum(packetBytes) 1330
attr interpolationmode none
attr source packetDropReasonIsNotAddressedToUs(packetDropped)
attr title "packet drops: not addressed to us, sum(packetBytes)"
scalar mobilityDrones.quads[1].wlan[0].mac.dcf packetDropQueueOverflow:count 0
attr interpolationmode none
attr source packetDropReasonIsQueueOverflow(packetDropped)
attr title "packet drops: queue overflow, count"
scalar mobilityDrones.quads[1].wlan[0].mac.dcf packetDropQueueOverflow:sum(packetBytes) 0
attr interpolationmode none
attr source packetDropReasonIsQueueOverflow(packetDropped)
attr title "packet drops: queue overflow, sum(packetBytes)"
scalar mobilityDrones.quads[1].wlan[0].mac.dcf packetDropRetryLimitReached:count 178
attr interpolationmode none
attr source packetDropReasonIsRetryLimitReached(packetDropped)
attr title "packet drops: retry limit reached, count"
scalar mobilityDrones.quads[1].wlan[0].mac.dcf packetDropRetryLimitReached:sum(packetBytes) 13884
attr interpolationmode none
attr source packetDropReasonIsRetryLimitReached(packetDropped)
attr title "packet drops: retry limit reached, sum(packetBytes)"
scalar mobilityDrones.quads[1].wlan[0].mac.dcf linkBroken:count 178
attr interpolationmode none
attr title "link breaks, count"
scalar mobilityDrones.quads[1].wlan[0].mac.dcf frameSequenceFinished:count 2032
attr title "finished frame sequences, count"
statistic mobilityDrones.quads[1].wlan[0].mac.dcf frameSequenceDuration:histogram
field count 2032
field mean 9.280762914616e-005
field stddev 2.4199041524675e-005
field min 5e-005
field max 0.000109
field sum 0.188585102425
field sqrsum 1.8691476871708e-005
attr source frameSequenceDuration(frameSequenceFinished)
attr title "frame sequence durations, histogram"
bin	-inf	0
bin	0	2032
bin	0.01	0
bin	0.02	0
bin	0.03	0
bin	0.04	0
bin	0.05	0
bin	0.06	0
bin	0.07	0
bin	0.08	0
bin	0.09	0
bin	0.1	0
bin	0.11	0
bin	0.12	0
bin	0.13	0
bin	0.14	0
bin	0.15	0
bin	0.16	0
bin	0.17	0
bin	0.18	0
bin	0.19	0
bin	0.2	0
bin	0.21	0
bin	0.22	0
bin	0.23	0
bin	0.24	0
bin	0.25	0
bin	0.26	0
bin	0.27	0
bin	0.28	0
bin	0.29	0
bin	0.3	0
bin	0.31	0
bin	0.32	0
bin	0.33	0
bin	0.34	0
bin	0.35	0
bin	0.36	0
bin	0.37	0
bin	0.38	0
bin	0.39	0
bin	0.4	0
bin	0.41	0
bin	0.42	0
bin	0.43	0
bin	0.44	0
bin	0.45	0
bin	0.46	0
bin	0.47	0
bin	0.48	0
bin	0.49	0
bin	0.5	0
bin	0.51	0
statistic mobilityDrones.quads[1].wlan[0].mac.dcf frameSequenceNumPackets:histogram
field count 2032
field mean 1.7249015748031
field stddev 0.44667378407744
field min 1
field max 2
field sum 3505
field sqrsum 6451
attr source frameSequenceNumPackets(frameSequenceFinished)
attr title "frame sequences: number of packets, histogram"
bin	-inf	0
bin	0	0
bin	1	559
bin	2	1473
bin	3	0
scalar mobilityDrones.quads[1].wlan[0].mac packetReceivedFromLower:count 797
attr interpolationmode none
attr title "packets received from lower layer, count"
scalar mobilityDrones.quads[1].wlan[0].mac packetReceivedFromLower:sum(packetBytes) 47700
attr interpolationmode none
attr title "packets received from lower layer, sum(packetBytes)"
scalar mobilityDrones.quads[1].wlan[0].mac packetSentToLower:count 2411
attr interpolationmode none
attr title "packets sent to lower layer, count"
scalar mobilityDrones.quads[1].wlan[0].mac packetSentToLower:sum(packetBytes) 163074
attr interpolationmode none
attr title "packets sent to lower layer, sum(packetBytes)"
scalar mobilityDrones.quads[1].wlan[0].mac packetReceivedFromUpper:count 926
attr interpolationmode none
attr title "packets received from upper layer, count"
scalar mobilityDrones.quads[1].wlan[0].mac packetReceivedFromUpper:sum(packetBytes) 45600
attr interpolationmode none
attr title "packets received from upper layer, sum(packetBytes)"
scalar mobilityDrones.quads[1].wlan[0].mac packetSentToUpper:count 456
attr interpolationmode none
attr title "packets sent to upper layer, count"
scalar mobilityDrones.quads[1].wlan[0].mac packetSentToUpper:sum(packetBytes) 22128
attr interpolationmode none
attr title "packets sent to upper layer, sum(packetBytes)"
scalar mobilityDrones.quads[1].wlan[0].mac packetDrop:count 330
attr interpolationmode none
attr source packetDropped
attr title "packet drops, count"
scalar mobilityDrones.quads[1].wlan[0].mac packetDrop:sum(packetBytes) 24042
attr interpolationmode none
attr source packetDropped
attr title "packet drops, sum(packetBytes)"
scalar mobilityDrones.quads[1].wlan[0].mac packetDropIncorrectlyReceived:count 117
attr interpolationmode none
attr source packetDropReasonIsIncorrectlyReceived(packetDropped)
attr title "packet drops: incorrectly received, count"
scalar mobilityDrones.quads[1].wlan[0].mac packetDropIncorrectlyReceived:sum(packetBytes) 8672
attr interpolationmode none
attr source packetDropReasonIsIncorrectlyReceived(packetDropped)
attr title "packet drops: incorrectly received, sum(packetBytes)"
scalar mobilityDrones.quads[1].wlan[0].mac packetDropNotAddressedToUs:count 33
attr interpolationmode none
attr source packetDropReasonIsNotAddressedToUs(packetDropped)
attr title "packet drops: not addressed to us, count"
scalar mobilityDrones.quads[1].wlan[0].mac packetDropNotAddressedToUs:sum(packetBytes) 1330
attr interpolationmode none
attr source packetDropReasonIsNotAddressedToUs(packetDropped)
attr title "packet drops: not addressed to us, sum(packetBytes)"
scalar mobilityDrones.quads[1].wlan[0].mac packetDropQueueOverflow:count 0
attr interpolationmode none
attr source packetDropReasonIsQueueOverflow(packetDropped)
attr title "packet drops: queue overflow, count"
scalar mobilityDrones.quads[1].wlan[0].mac packetDropQueueOverflow:sum(packetBytes) 0
attr interpolationmode none
attr source packetDropReasonIsQueueOverflow(packetDropped)
attr title "packet drops: queue overflow, sum(packetBytes)"
scalar mobilityDrones.quads[1].wlan[0].mac packetDropRetryLimitReached:count 178
attr interpolationmode none
attr source packetDropReasonIsRetryLimitReached(packetDropped)
attr title "packet drops: retry limit reached, count"
scalar mobilityDrones.quads[1].wlan[0].mac packetDropRetryLimitReached:sum(packetBytes) 13884
attr interpolationmode none
attr source packetDropReasonIsRetryLimitReached(packetDropped)
attr title "packet drops: retry limit reached, sum(packetBytes)"
scalar mobilityDrones.quads[1].wlan[0].mac packetDropDuplicateDetected:count 2
attr interpolationmode none
attr source packetDropReasonIsDuplicateDetected(packetDropped)
attr title "packet drops: duplicate detected, count"
scalar mobilityDrones.quads[1].wlan[0].mac packetDropDuplicateDetected:sum(packetBytes) 156
attr interpolationmode none
attr source packetDropReasonIsDuplicateDetected(packetDropped)
attr title "packet drops: duplicate detected, sum(packetBytes)"
scalar mobilityDrones.quads[1].wlan[0].mac packetDropOther:count 0
attr interpolationmode none
attr source packetDropReasonIsOther(packetDropped)
attr title "packet drops: other, count"
scalar mobilityDrones.quads[1].wlan[0].mac packetDropOther:sum(packetBytes) 0
attr interpolationmode none
attr source packetDropReasonIsOther(packetDropped)
attr title "packet drops: other, sum(packetBytes)"
scalar mobilityDrones.quads[1].wlan[0].mac linkBroken:count 178
attr interpolationmode none
attr title "link breaks, count"
statistic mobilityDrones.quads[1].wlan[0].radio minSnir:histogram
field count 797
field mean 115126017.94435
field stddev 3250130750.4868
field min 7.08437762046
field max 91755054109.427
field sum 91755436301.648
field sqrsum 8.4189899546329e+021
attr source minimumSnir(packetSentToUpper)
attr title "Min SNIR, histogram"
bin	-inf	0
bin	0	796
bin	2000000000	0
bin	4000000000	0
bin	6000000000	0
bin	8000000000	0
bin	10000000000	0
bin	12000000000	0
bin	14000000000	0
bin	16000000000	0
bin	18000000000	0
bin	20000000000	0
bin	22000000000	0
bin	24000000000	0
bin	26000000000	0
bin	28000000000	0
bin	30000000000	0
bin	32000000000	0
bin	34000000000	0
bin	36000000000	0
bin	38000000000	0
bin	40000000000	0
bin	42000000000	0
bin	44000000000	0
bin	46000000000	0
bin	48000000000	0
bin	50000000000	0
bin	52000000000	0
bin	54000000000	0
bin	56000000000	0
bin	58000000000	0
bin	60000000000	0
bin	62000000000	0
bin	64000000000	0
bin	66000000000	0
bin	68000000000	0
bin	70000000000	0
bin	72000000000	0
bin	74000000000	0
bin	76000000000	0
bin	78000000000	0
bin	80000000000	0
bin	82000000000	0
bin	84000000000	0
bin	86000000000	0
bin	88000000000	0
bin	90000000000	1
bin	92000000000	0
bin	94000000000	0
bin	96000000000	0
bin	98000000000	0
bin	100000000000	0
bin	102000000000	0
bin	104000000000	0
bin	106000000000	0
bin	108000000000	0
bin	110000000000	0
bin	112000000000	0
bin	114000000000	0
bin	116000000000	0
statistic mobilityDrones.quads[1].wlan[0].radio packetErrorRate:histogram
field count 797
field mean 0.1554421247234
field stddev 0.29667549084252
field min 0
field max 1
field sum 123.88737340455
field sqrsum 89.318328654257
attr source packetErrorRate(packetSentToUpper)
attr title "Packet error rate, histogram"
bin	-inf	0
bin	0	463
bin	0.02	50
bin	0.04	41
bin	0.06	17
bin	0.08	9
bin	0.1	15
bin	0.12	11
bin	0.14	10
bin	0.16	7
bin	0.18	13
bin	0.2	6
bin	0.22	4
bin	0.24	2
bin	0.26	3
bin	0.28	1
bin	0.3	9
bin	0.32	4
bin	0.34	3
bin	0.36	5
bin	0.38	3
bin	0.4	4
bin	0.42	5
bin	0.44	4
bin	0.46	3
bin	0.48	4
bin	0.5	4
bin	0.52	5
bin	0.54	3
bin	0.56	2
bin	0.58	3
bin	0.6	2
bin	0.62	0
bin	0.64	0
bin	0.66	0
bin	0.68	1
bin	0.7	1
bin	0.72	0
bin	0.74	2
bin	0.76	1
bin	0.78	3
bin	0.8	2
bin	0.82	2
bin	0.84	1
bin	0.86	8
bin	0.88	2
bin	0.9	1
bin	0.92	1
bin	0.94	1
bin	0.96	0
bin	0.98	14
bin	1	42
bin	1.02	0
bin	1.04	0
bin	1.06	0
bin	1.08	0
bin	1.1	0
bin	1.12	0
bin	1.14	0
bin	1.16	0
bin	1.18	0
bin	1.2	0
bin	1.22	0
bin	1.24	0
bin	1.26	0
statistic mobilityDrones.quads[1].wlan[0].radio bitErrorRate:histogram
field count 0
field mean nan
field stddev nan
field min nan
field max nan
field sum 0
field sqrsum 0
attr source bitErrorRate(packetSentToUpper)
attr title "Bit error rate, histogram"
bin	-inf	0
bin	0	0
bin	1	0
statistic mobilityDrones.quads[1].wlan[0].radio symbolErrorRate:histogram
field count 0
field mean nan
field stddev nan
field min nan
field max nan
field sum 0
field sqrsum 0
attr source symbolErrorRate(packetSentToUpper)
attr title "Symbol error rate, histogram"
bin	-inf	0
bin	0	0
bin	1	0
scalar mobilityDrones.quads[1].wlan[0].radio transmissionState:count 9644
attr interpolationmode sample-hold
attr source transmissionStateChanged
attr title "Radio transmission state, count"
scalar mobilityDrones.quads[1].wlan[0].radio receptionState:count 6555
attr interpolationmode sample-hold
attr source receptionStateChanged
attr title "Radio reception state, count"
scalar mobilityDrones.quads[1].wlan[0].radio radioMode:count 4825
attr interpolationmode sample-hold
attr source radioModeChanged
attr title "Radio mode, count"
statistic mobilityDrones.quads[1].wlan[0].radio radioChannel:histogram
field count 1
field mean 0
field stddev nan
field min 0
field max 0
field sum 0
field sqrsum 0
attr interpolationmode sample-hold
attr source radioChannelChanged
attr title "Radio channel, histogram"
bin	-inf	0
bin	-0.5	0
bin	-0.48	0
bin	-0.46	0
bin	-0.44	0
bin	-0.42	0
bin	-0.4	0
bin	-0.38	0
bin	-0.36	0
bin	-0.34	0
bin	-0.32	0
bin	-0.3	0
bin	-0.28	0
bin	-0.26	0
bin	-0.24	0
bin	-0.22	0
bin	-0.2	0
bin	-0.18	0
bin	-0.16	0
bin	-0.14	0
bin	-0.12	0
bin	-0.1	0
bin	-0.08	0
bin	-0.06	0
bin	-0.04	0
bin	-0.02	0
bin	0	1
bin	0.02	0
bin	0.04	0
bin	0.06	0
bin	0.08	0
bin	0.1	0
bin	0.12	0
bin	0.14	0
bin	0.16	0
bin	0.18	0
bin	0.2	0
bin	0.22	0
bin	0.24	0
bin	0.26	0
bin	0.28	0
bin	0.3	0
bin	0.32	0
bin	0.34	0
bin	0.36	0
bin	0.38	0
bin	0.4	0
bin	0.42	0
bin	0.44	0
bin	0.46	0
bin	0.48	0
bin	0.5	0
scalar mobilityDrones.quads[1].ipv4.ip packetDropAddressResolutionFailed:count 4
attr interpolationmode none
attr source packetDropReasonIsAddressResolutionFailed(packetDropped)
attr title "packet drop: address resolution failed, count"
scalar mobilityDrones.quads[1].ipv4.ip packetDropAddressResolutionFailed:sum(packetBytes) 168
attr interpolationmode none
attr source packetDropReasonIsAddressResolutionFailed(packetDropped)
attr title "packet drop: address resolution failed, sum(packetBytes)"
scalar mobilityDrones.quads[1].ipv4.ip packetDropHopLimitReached:count 0
attr interpolationmode none
attr source packetDropReasonIsHopLimitReached(packetDropped)
attr title "packet drop: hop limit reached, count"
scalar mobilityDrones.quads[1].ipv4.ip packetDropHopLimitReached:sum(packetBytes) 0
attr interpolationmode none
attr source packetDropReasonIsHopLimitReached(packetDropped)
attr title "packet drop: hop limit reached, sum(packetBytes)"
scalar mobilityDrones.quads[1].ipv4.ip packetDropForwardingDisabled:count 0
attr interpolationmode none
attr source packetDropReasonIsForwardingDisabled(packetDropped)
attr title "packet drop: forwarding disabled, count"
scalar mobilityDrones.quads[1].ipv4.ip packetDropForwardingDisabled:sum(packetBytes) 0
attr interpolationmode none
attr source packetDropReasonIsForwardingDisabled(packetDropped)
attr title "packet drop: forwarding disabled, sum(packetBytes)"
scalar mobilityDrones.quads[1].ipv4.ip packetDropNoInterfaceFound:count 0
attr interpolationmode none
attr source packetDropReasonIsNoInterfaceFound(packetDropped)
attr title "packet drop: no interface found, count"
scalar mobilityDrones.quads[1].ipv4.ip packetDropNoInterfaceFound:sum(packetBytes) 0
attr interpolationmode none
attr source packetDropReasonIsNoInterfaceFound(packetDropped)
attr title "packet drop: no interface found, sum(packetBytes)"
scalar mobilityDrones.quads[1].ipv4.ip packetDropNoRouteFound:count 0
attr interpolationmode none
attr source packetDropReasonIsNoRouteFound(packetDropped)
attr title "packet drop: no route found, count"
scalar mobilityDrones.quads[1].ipv4.ip packetDropNoRouteFound:sum(packetBytes) 0
attr interpolationmode none
attr source packetDropReasonIsNoRouteFound(packetDropped)
attr title "packet drop: no route found, sum(packetBytes)"
scalar mobilityDrones.quads[1].ipv4.ip packetDropUndefined:count 0
attr interpolationmode none
attr source packetDropReasonIsUndefined(packetDropped)
attr title "packet drop: undefined, count"
scalar mobilityDrones.quads[1].ipv4.ip packetDropUndefined:sum(packetBytes) 0
attr interpolationmode none
attr source packetDropReasonIsUndefined(packetDropped)
attr title "packet drop: undefined, sum(packetBytes)"
scalar mobilityDrones.quads[1].ipv4.arp arpReplySent:count 33
attr source arpReplySent
attr title "ARP replies sent, count"
scalar mobilityDrones.quads[1].ipv4.arp arpReplySent:sum(packetBytes) 924
attr source arpReplySent
attr title "ARP replies sent, sum(packetBytes)"
scalar mobilityDrones.quads[1].ipv4.arp arpRequestSent:count 17
attr source arpRequestSent
attr title "ARP request sent, count"
scalar mobilityDrones.quads[1].ipv4.arp arpRequestSent:sum(packetBytes) 476
attr source arpRequestSent
attr title "ARP request sent, sum(packetBytes)"
scalar mobilityDrones.quads[1].ipv4.arp arpResolutionFailed:count 2
attr title "ARP failed resolutions, count"
scalar mobilityDrones.quads[1].ipv4.arp arpResolutionCompleted:count 48
attr title "ARP completed resolutions, count"
scalar mobilityDrones.quads[1].ipv4.arp arpResolutionInitiated:count 12
attr title "ARP initiated resolutions, count"
scalar mobilityDrones.quads[1].udp packetReceived:count 936
attr interpolationmode none
attr source packetReceived
attr title "packets received, count"
scalar mobilityDrones.quads[1].udp packetReceived:sum(packetBytes) 20592
attr interpolationmode none
attr source packetReceived
attr title "packets received, sum(packetBytes)"
scalar mobilityDrones.quads[1].udp packetSent:count 880
attr interpolationmode none
attr source packetSent
attr title "packets sent, count"
scalar mobilityDrones.quads[1].udp packetSent:sum(packetBytes) 19360
attr interpolationmode none
attr source packetSent
attr title "packets sent, sum(packetBytes)"
scalar mobilityDrones.quads[1].udp passedUpPk:count 936
attr interpolationmode none
attr source packetSentToUpper
attr title "packets passed up, count"
scalar mobilityDrones.quads[1].udp droppedPkWrongPort:count 0
attr interpolationmode none
attr source packetDropReasonIsNoPortFound(packetDropped)
attr title "packets dropped (wrong port), count"
scalar mobilityDrones.quads[1].udp droppedPkBadChecksum:count 0
attr interpolationmode none
attr source packetDropReasonIsIncorrectlyReceived(packetDropped)
attr title "packets dropped (checksum error), count"
scalar mobilityDrones.quads[1].app[0] "packets sent" 880
scalar mobilityDrones.quads[1].app[0] "packets received" 0
scalar mobilityDrones.quads[1].app[0] packetReceived:count 356
attr interpolationmode none
attr source packetReceived
attr title "packets received, count"
scalar mobilityDrones.quads[1].app[0] packetReceived:sum(packetBytes) 4984
attr interpolationmode none
attr source packetReceived
attr title "packets received, sum(packetBytes)"
statistic mobilityDrones.quads[1].app[0] rcvdPkLifetime:stats
field count 356
field mean 0.010684989329831
field stddev 0.091958846119384
field min 5.4065766e-005
field max 1.010309127606
field sum 3.80385620142
field sqrsum 3.0426765926855
attr interpolationmode none
attr source dataAge(packetReceived)
attr title "received packet lifetime, stats"
attr unit s
scalar mobilityDrones.quads[1].app[0] packetSent:count 880
attr interpolationmode none
attr source packetSent
attr title "packets sent, count"
scalar mobilityDrones.quads[1].app[0] packetSent:sum(packetBytes) 12320
attr interpolationmode none
attr source packetSent
attr title "packets sent, sum(packetBytes)"
scalar mobilityDrones.quads[2].lo[0].lo rcvdPkFromHl:count 959
attr interpolationmode none
attr source packetReceivedFromUpper
attr title "packets received from higher layer, count"
scalar mobilityDrones.quads[2].lo[0].lo rcvdPkFromHl:sum(packetBytes) 40278
attr interpolationmode none
attr source packetReceivedFromUpper
attr title "packets received from higher layer, sum(packetBytes)"
scalar mobilityDrones.quads[2].lo[0].lo passedUpPk:count 959
attr interpolationmode none
attr source packetSentToUpper
attr title "packets passed to higher layer, count"
scalar mobilityDrones.quads[2].lo[0].lo passedUpPk:sum(packetBytes) 40278
attr interpolationmode none
attr source packetSentToUpper
attr title "packets passed to higher layer, sum(packetBytes)"
scalar mobilityDrones.quads[2].wlan[0].mac.dcf.channelAccess.pendingQueue packetPopped:count 1324
attr interpolationmode none
attr title "packet popped, count"
scalar mobilityDrones.quads[2].wlan[0].mac.dcf.channelAccess.pendingQueue packetPopped:sum(packetBytes) 102796
attr interpolationmode none
attr title "packet popped, sum(packetBytes)"
statistic mobilityDrones.quads[2].wlan[0].mac.dcf.channelAccess.pendingQueue queueingTime:histogram
field count 1324
field mean 0.00049022279389577
field stddev 0.0025767652046937
field min 0
field max 0.020454
field sum 0.649054979118
field sqrsum 0.0091025296765739
attr interpolationmode none
attr source queueingTime(packetPopped)
attr title "queueing times, histogram"
attr unit s
bin	-inf	0
bin	-0.5	0
bin	-0.48	0
bin	-0.46	0
bin	-0.44	0
bin	-0.42	0
bin	-0.4	0
bin	-0.38	0
bin	-0.36	0
bin	-0.34	0
bin	-0.32	0
bin	-0.3	0
bin	-0.28	0
bin	-0.26	0
bin	-0.24	0
bin	-0.22	0
bin	-0.2	0
bin	-0.18	0
bin	-0.16	0
bin	-0.14	0
bin	-0.12	0
bin	-0.1	0
bin	-0.08	0
bin	-0.06	0
bin	-0.04	0
bin	-0.02	0
bin	0	1320
bin	0.02	4
bin	0.04	0
bin	0.06	0
bin	0.08	0
bin	0.1	0
bin	0.12	0
bin	0.14	0
bin	0.16	0
bin	0.18	0
bin	0.2	0
bin	0.22	0
bin	0.24	0
bin	0.26	0
bin	0.28	0
bin	0.3	0
bin	0.32	0
bin	0.34	0
bin	0.36	0
bin	0.38	0
bin	0.4	0
bin	0.42	0
bin	0.44	0
bin	0.46	0
bin	0.48	0
bin	0.5	0
scalar mobilityDrones.quads[2].wlan[0].mac.dcf.channelAccess.pendingQueue queueLength:max 2
attr interpolationmode sample-hold
attr source "count(packetPushed) - count(packetPopped) - count(packetRemoved) - count(packetDropped)"
attr title "queue length, max"
scalar mobilityDrones.quads[2].wlan[0].mac.dcf.channelAccess.pendingQueue queueLength:timeavg 0.00041518571995314
attr interpolationmode sample-hold
attr source "count(packetPushed) - count(packetPopped) - count(packetRemoved) - count(packetDropped)"
attr title "queue length, timeavg"
scalar mobilityDrones.quads[2].wlan[0].mac.dcf.channelAccess.pendingQueue packetPushed:count 1324
attr interpolationmode none
attr title "packet pushed, count"
scalar mobilityDrones.quads[2].wlan[0].mac.dcf.channelAccess.pendingQueue packetPushed:sum(packetBytes) 102796
attr interpolationmode none
attr title "packet pushed, sum(packetBytes)"
scalar mobilityDrones.quads[2].wlan[0].mac.dcf.channelAccess.pendingQueue packetDropQueueOverflow:count 0
attr interpolationmode none
attr source packetDropReasonIsQueueOverflow(packetDropped)
attr title "packet drops: queue overflow, count"
scalar mobilityDrones.quads[2].wlan[0].mac.dcf.channelAccess.pendingQueue packetDropQueueOverflow:sum(packetBytes) 0
attr interpolationmode none
attr source packetDropReasonIsQueueOverflow(packetDropped)
attr title "packet drops: queue overflow, sum(packetBytes)"
scalar mobilityDrones.quads[2].wlan[0].mac.dcf.channelAccess.pendingQueue packetRemoved:count 0
attr interpolationmode none
attr title "packets removed, count"
scalar mobilityDrones.quads[2].wlan[0].mac.dcf.channelAccess.pendingQueue packetRemoved:sum(packetBytes) 0
attr interpolationmode none
attr title "packets removed, sum(packetBytes)"
statistic mobilityDrones.quads[2].wlan[0].mac.dcf.channelAccess.inProgressFrames queueingTime:histogram
field count 1324
field mean 0.0079201080060236
field stddev 0.019161645663653
field min 5e-005
field max 0.101357
field sum 10.486222999975
field sqrsum 0.56881616192067
attr interpolationmode none
attr source queueingTime(packetDequeued)
attr title "queueing times, histogram"
bin	-inf	0
bin	0	1100
bin	0.01	15
bin	0.02	34
bin	0.03	51
bin	0.04	39
bin	0.05	27
bin	0.06	21
bin	0.07	26
bin	0.08	7
bin	0.09	3
bin	0.1	1
bin	0.11	0
bin	0.12	0
bin	0.13	0
bin	0.14	0
bin	0.15	0
bin	0.16	0
bin	0.17	0
bin	0.18	0
bin	0.19	0
bin	0.2	0
bin	0.21	0
bin	0.22	0
bin	0.23	0
bin	0.24	0
bin	0.25	0
bin	0.26	0
bin	0.27	0
bin	0.28	0
bin	0.29	0
bin	0.3	0
bin	0.31	0
bin	0.32	0
bin	0.33	0
bin	0.34	0
bin	0.35	0
bin	0.36	0
bin	0.37	0
bin	0.38	0
bin	0.39	0
bin	0.4	0
bin	0.41	0
bin	0.42	0
bin	0.43	0
bin	0.44	0
bin	0.45	0
bin	0.46	0
bin	0.47	0
bin	0.48	0
bin	0.49	0
bin	0.5	0
bin	0.51	0
scalar mobilityDrones.quads[2].wlan[0].mac.dcf.channelAccess.inProgressFrames queueLength:max 2
attr interpolationmode sample-hold
attr source "count(packetEnqueued) - count(packetDequeued)"
attr title "queue length, max"
scalar mobilityDrones.quads[2].wlan[0].mac.dcf.channelAccess.inProgressFrames queueLength:timeavg 0.006707798546974
attr interpolationmode sample-hold
attr source "count(packetEnqueued) - count(packetDequeued)"
attr title "queue length, timeavg"
scalar mobilityDrones.quads[2].wlan[0].mac.dcf.channelAccess.contention stateChanged:count 24162
attr interpolationmode none
attr title "contention state changed, count"
scalar mobilityDrones.quads[2].wlan[0].mac.dcf.channelAccess.contention channelAccessGranted:count 2669
attr title "channel access granted, count"
scalar mobilityDrones.quads[2].wlan[0].mac.dcf.channelAccess channelOwnershipChanged:count 5338
attr interpolationmode sample-hold
attr title "channel ownership, count"
scalar mobilityDrones.quads[2].wlan[0].mac.dcf.originatorMacDataService packetAggregated:count 0
attr title "packets aggregated, count"
scalar mobilityDrones.quads[2].wlan[0].mac.dcf.originatorMacDataService packetFragmented:count 0
attr title "packets fragmented, count"
scalar mobilityDrones.quads[2].wlan[0].mac.dcf.recipientMacDataService packetDropDuplicateDetected:count 9
attr interpolationmode none
attr source packetDropReasonIsDuplicateDetected(packetDropped)
attr title "packet drops: duplicate detected, count"
scalar mobilityDrones.quads[2].wlan[0].mac.dcf.recipientMacDataService packetDropDuplicateDetected:sum(packetBytes) 702
attr interpolationmode none
attr source packetDropReasonIsDuplicateDetected(packetDropped)
attr title "packet drops: duplicate detected, sum(packetBytes)"
scalar mobilityDrones.quads[2].wlan[0].mac.dcf.recipientMacDataService packetDeaggregated:count 0
attr title "packets deaggregated, count"
scalar mobilityDrones.quads[2].wlan[0].mac.dcf.recipientMacDataService packetDefragmented:count 281
attr title "packets defragmented, count"
scalar mobilityDrones.quads[2].wlan[0].mac.dcf.recoveryProcedure retryLimitReached:count 219
attr title "retry limit reached, count"
scalar mobilityDrones.quads[2].wlan[0].mac.dcf packetReceivedFromPeer:count 420
attr interpolationmode none
attr title "packets received, count"
scalar mobilityDrones.quads[2].wlan[0].mac.dcf packetReceivedFromPeer:sum(packetBytes) 24020
attr interpolationmode none
attr title "packets received, sum(packetBytes)"
scalar mobilityDrones.quads[2].wlan[0].mac.dcf packetReceivedFromPeerUnicast:count 340
attr interpolationmode none
attr source ieee80211Unicast(packetReceivedFromPeer)
attr title "packets received: unicast, count"
scalar mobilityDrones.quads[2].wlan[0].mac.dcf packetReceivedFromPeerUnicast:sum(packetBytes) 18060
attr interpolationmode none
attr source ieee80211Unicast(packetReceivedFromPeer)
attr title "packets received: unicast, sum(packetBytes)"
scalar mobilityDrones.quads[2].wlan[0].mac.dcf packetReceivedFromPeerMulticast:count 80
attr interpolationmode none
attr source ieee80211Multicast(packetReceivedFromPeer)
attr title "packets received: multicast, count"
scalar mobilityDrones.quads[2].wlan[0].mac.dcf packetReceivedFromPeerMulticast:sum(packetBytes) 5960
attr interpolationmode none
attr source ieee80211Multicast(packetReceivedFromPeer)
attr title "packets received: multicast, sum(packetBytes)"
scalar mobilityDrones.quads[2].wlan[0].mac.dcf packetReceivedFromPeerBroadcast:count 20
attr interpolationmode none
attr source ieee80211Broadcast(packetReceivedFromPeer)
attr title "packets received: broadcast, count"
scalar mobilityDrones.quads[2].wlan[0].mac.dcf packetReceivedFromPeerBroadcast:sum(packetBytes) 1280
attr interpolationmode none
attr source ieee80211Broadcast(packetReceivedFromPeer)
attr title "packets received: broadcast, sum(packetBytes)"
scalar mobilityDrones.quads[2].wlan[0].mac.dcf packetReceivedFromPeerWithRetry:count 29
attr interpolationmode none
attr source ieee80211Retry(packetReceivedFromPeer)
attr title "packets received: with retry, count"
scalar mobilityDrones.quads[2].wlan[0].mac.dcf packetReceivedFromPeerWithRetry:sum(packetBytes) 2234
attr interpolationmode none
attr source ieee80211Retry(packetReceivedFromPeer)
attr title "packets received: with retry, sum(packetBytes)"
scalar mobilityDrones.quads[2].wlan[0].mac.dcf packetReceivedFromPeerWithoutRetry:count 391
attr interpolationmode none
attr source ieee80211NotRetry(packetReceivedFromPeer)
attr title "packets received: without retry, count"
scalar mobilityDrones.quads[2].wlan[0].mac.dcf packetReceivedFromPeerWithoutRetry:sum(packetBytes) 21786
attr interpolationmode none
attr source ieee80211NotRetry(packetReceivedFromPeer)
attr title "packets received: without retry, sum(packetBytes)"
scalar mobilityDrones.quads[2].wlan[0].mac.dcf packetSentToPeer:count 2879
attr interpolationmode none
attr title "packets sent, count"
scalar mobilityDrones.quads[2].wlan[0].mac.dcf packetSentToPeer:sum(packetBytes) 210604
attr interpolationmode none
attr title "packets sent, sum(packetBytes)"
scalar mobilityDrones.quads[2].wlan[0].mac.dcf packetSentToPeerUnicast:count 1904
attr interpolationmode none
attr source ieee80211Unicast(packetSentToPeer)
attr title "packets sent: unicast, count"
scalar mobilityDrones.quads[2].wlan[0].mac.dcf packetSentToPeerUnicast:sum(packetBytes) 134778
attr interpolationmode none
attr source ieee80211Unicast(packetSentToPeer)
attr title "packets sent: unicast, sum(packetBytes)"
scalar mobilityDrones.quads[2].wlan[0].mac.dcf packetSentToPeerMulticast:count 975
attr interpolationmode none
attr source ieee80211Multicast(packetSentToPeer)
attr title "packets sent: multicast, count"
scalar mobilityDrones.quads[2].wlan[0].mac.dcf packetSentToPeerMulticast:sum(packetBytes) 75826
attr interpolationmode none
attr source ieee80211Multicast(packetSentToPeer)
attr title "packets sent: multicast, sum(packetBytes)"
scalar mobilityDrones.quads[2].wlan[0].mac.dcf packetSentToPeerBroadcast:count 16
attr interpolationmode none
attr source ieee80211Broadcast(packetSentToPeer)
attr title "packets sent: broadcast , count"
scalar mobilityDrones.quads[2].wlan[0].mac.dcf packetSentToPeerBroadcast:sum(packetBytes) 1024
attr interpolationmode none
attr source ieee80211Broadcast(packetSentToPeer)
attr title "packets sent: broadcast , sum(packetBytes)"
scalar mobilityDrones.quads[2].wlan[0].mac.dcf packetSentToPeerWithRetry:count 1345
attr interpolationmode none
attr source ieee80211Retry(packetSentToPeer)
attr title "packets sent: with retry, count"
scalar mobilityDrones.quads[2].wlan[0].mac.dcf packetSentToPeerWithRetry:sum(packetBytes) 104868
attr interpolationmode none
attr source ieee80211Retry(packetSentToPeer)
attr title "packets sent: with retry, sum(packetBytes)"
scalar mobilityDrones.quads[2].wlan[0].mac.dcf packetSentToPeerWithoutRetry:count 1534
[...]
scalar mobilityDrones.groundStation.wlan[0].mac.dcf packetSentToPeerMulticast:sum(packetBytes) 107690
attr interpolationmode none
attr source ieee80211Multicast(packetSentToPeer)
attr title "packets sent: multicast, sum(packetBytes)"
scalar mobilityDrones.groundStation.wlan[0].mac.dcf packetSentToPeerBroadcast:count 2
attr interpolationmode none
attr source ieee80211Broadcast(packetSentToPeer)
attr title "packets sent: broadcast , count"
scalar mobilityDrones.groundStation.wlan[0].mac.dcf packetSentToPeerBroadcast:sum(packetBytes) 128
attr interpolationmode none
attr source ieee80211Broadcast(packetSentToPeer)
attr title "packets sent: broadcast , sum(packetBytes)"
scalar mobilityDrones.groundStation.wlan[0].mac.dcf packetSentToPeerWithRetry:count 683
attr interpolationmode none
attr source ieee80211Retry(packetSentToPeer)
attr title "packets sent: with retry, count"
scalar mobilityDrones.groundStation.wlan[0].mac.dcf packetSentToPeerWithRetry:sum(packetBytes) 53218
attr interpolationmode none
attr source ieee80211Retry(packetSentToPeer)
attr title "packets sent: with retry, sum(packetBytes)"
scalar mobilityDrones.groundStation.wlan[0].mac.dcf packetSentToPeerWithoutRetry:count 1635
attr interpolationmode none
attr source ieee80211NotRetry(packetSentToPeer)
attr title "packets sent: without retry, count"
scalar mobilityDrones.groundStation.wlan[0].mac.dcf packetSentToPeerWithoutRetry:sum(packetBytes) 122376
attr interpolationmode none
attr source ieee80211NotRetry(packetSentToPeer)
attr title "packets sent: without retry, sum(packetBytes)"
scalar mobilityDrones.groundStation.wlan[0].mac.dcf packetDrop:count 115
attr interpolationmode none
attr source packetDropped
attr title "packet drops, count"
scalar mobilityDrones.groundStation.wlan[0].mac.dcf packetDrop:sum(packetBytes) 8970
attr interpolationmode none
attr source packetDropped
attr title "packet drops, sum(packetBytes)"
scalar mobilityDrones.groundStation.wlan[0].mac.dcf packetDropNotAddressedToUs:count 3
attr interpolationmode none
attr source packetDropReasonIsNotAddressedToUs(packetDropped)
attr title "packet drops: not addressed to us, count"
scalar mobilityDrones.groundStation.wlan[0].mac.dcf packetDropNotAddressedToUs:sum(packetBytes) 234
attr interpolationmode none
attr source packetDropReasonIsNotAddressedToUs(packetDropped)
attr title "packet drops: not addressed to us, sum(packetBytes)"
scalar mobilityDrones.groundStation.wlan[0].mac.dcf packetDropQueueOverflow:count 0
attr interpolationmode none
attr source packetDropReasonIsQueueOverflow(packetDropped)
attr title "packet drops: queue overflow, count"
scalar mobilityDrones.groundStation.wlan[0].mac.dcf packetDropQueueOverflow:sum(packetBytes) 0
attr interpolationmode none
attr source packetDropReasonIsQueueOverflow(packetDropped)
attr title "packet drops: queue overflow, sum(packetBytes)"
scalar mobilityDrones.groundStation.wlan[0].mac.dcf packetDropRetryLimitReached:count 108
attr interpolationmode none
attr source packetDropReasonIsRetryLimitReached(packetDropped)
attr title "packet drops: retry limit reached, count"
scalar mobilityDrones.groundStation.wlan[0].mac.dcf packetDropRetryLimitReached:sum(packetBytes) 8424
attr interpolationmode none
attr source packetDropReasonIsRetryLimitReached(packetDropped)
attr title "packet drops: retry limit reached, sum(packetBytes)"
scalar mobilityDrones.groundStation.wlan[0].mac.dcf linkBroken:count 108
attr interpolationmode none
attr title "link breaks, count"
scalar mobilityDrones.groundStation.wlan[0].mac.dcf frameSequenceFinished:count 2239
attr title "finished frame sequences, count"
statistic mobilityDrones.groundStation.wlan[0].mac.dcf frameSequenceDuration:histogram
field count 2239
field mean 7.4750827581508e-005
field stddev 2.6398599182503e-005
field min 5e-005
field max 0.000109
field sum 0.167367102955
field sqrsum 1.4070460410636e-005
attr source frameSequenceDuration(frameSequenceFinished)
attr title "frame sequence durations, histogram"
bin	-inf	0
bin	0	2239
bin	0.01	0
bin	0.02	0
bin	0.03	0
bin	0.04	0
bin	0.05	0
bin	0.06	0
bin	0.07	0
bin	0.08	0
bin	0.09	0
bin	0.1	0
bin	0.11	0
bin	0.12	0
bin	0.13	0
bin	0.14	0
bin	0.15	0
bin	0.16	0
bin	0.17	0
bin	0.18	0
bin	0.19	0
bin	0.2	0
bin	0.21	0
bin	0.22	0
bin	0.23	0
bin	0.24	0
bin	0.25	0
bin	0.26	0
bin	0.27	0
bin	0.28	0
bin	0.29	0
bin	0.3	0
bin	0.31	0
bin	0.32	0
bin	0.33	0
bin	0.34	0
bin	0.35	0
bin	0.36	0
bin	0.37	0
bin	0.38	0
bin	0.39	0
bin	0.4	0
bin	0.41	0
bin	0.42	0
bin	0.43	0
bin	0.44	0
bin	0.45	0
bin	0.46	0
bin	0.47	0
bin	0.48	0
bin	0.49	0
bin	0.5	0
bin	0.51	0
statistic mobilityDrones.groundStation.wlan[0].mac.dcf frameSequenceNumPackets:histogram
field count 2239
field mean 1.383206788745
field stddev 0.48627662669116
field min 1
field max 2
field sum 3097
field sqrsum 4813
attr source frameSequenceNumPackets(frameSequenceFinished)
attr title "frame sequences: number of packets, histogram"
bin	-inf	0
bin	0	0
bin	1	1381
bin	2	858
bin	3	0
scalar mobilityDrones.groundStation.wlan[0].mac packetReceivedFromLower:count 271
attr interpolationmode none
attr title "packets received from lower layer, count"
scalar mobilityDrones.groundStation.wlan[0].mac packetReceivedFromLower:sum(packetBytes) 16624
attr interpolationmode none
attr title "packets received from lower layer, sum(packetBytes)"
scalar mobilityDrones.groundStation.wlan[0].mac packetSentToLower:count 2318
attr interpolationmode none
attr title "packets sent to lower layer, count"
scalar mobilityDrones.groundStation.wlan[0].mac packetSentToLower:sum(packetBytes) 175594
attr interpolationmode none
attr title "packets sent to lower layer, sum(packetBytes)"
scalar mobilityDrones.groundStation.wlan[0].mac packetReceivedFromUpper:count 1556
attr interpolationmode none
attr title "packets received from upper layer, count"
scalar mobilityDrones.groundStation.wlan[0].mac packetReceivedFromUpper:sum(packetBytes) 77702
attr interpolationmode none
attr title "packets received from upper layer, sum(packetBytes)"
scalar mobilityDrones.groundStation.wlan[0].mac packetSentToUpper:count 147
attr interpolationmode none
attr title "packets sent to upper layer, count"
scalar mobilityDrones.groundStation.wlan[0].mac packetSentToUpper:sum(packetBytes) 7252
attr interpolationmode none
attr title "packets sent to upper layer, sum(packetBytes)"
scalar mobilityDrones.groundStation.wlan[0].mac packetDrop:count 165
attr interpolationmode none
attr source packetDropped
attr title "packet drops, count"
scalar mobilityDrones.groundStation.wlan[0].mac packetDrop:sum(packetBytes) 12742
attr interpolationmode none
attr source packetDropped
attr title "packet drops, sum(packetBytes)"
scalar mobilityDrones.groundStation.wlan[0].mac packetDropIncorrectlyReceived:count 50
attr interpolationmode none
attr source packetDropReasonIsIncorrectlyReceived(packetDropped)
attr title "packet drops: incorrectly received, count"
scalar mobilityDrones.groundStation.wlan[0].mac packetDropIncorrectlyReceived:sum(packetBytes) 3772
attr interpolationmode none
attr source packetDropReasonIsIncorrectlyReceived(packetDropped)
attr title "packet drops: incorrectly received, sum(packetBytes)"
scalar mobilityDrones.groundStation.wlan[0].mac packetDropNotAddressedToUs:count 3
attr interpolationmode none
attr source packetDropReasonIsNotAddressedToUs(packetDropped)
attr title "packet drops: not addressed to us, count"
scalar mobilityDrones.groundStation.wlan[0].mac packetDropNotAddressedToUs:sum(packetBytes) 234
attr interpolationmode none
attr source packetDropReasonIsNotAddressedToUs(packetDropped)
attr title "packet drops: not addressed to us, sum(packetBytes)"
scalar mobilityDrones.groundStation.wlan[0].mac packetDropQueueOverflow:count 0
attr interpolationmode none
attr source packetDropReasonIsQueueOverflow(packetDropped)
attr title "packet drops: queue overflow, count"
scalar mobilityDrones.groundStation.wlan[0].mac packetDropQueueOverflow:sum(packetBytes) 0
attr interpolationmode none
attr source packetDropReasonIsQueueOverflow(packetDropped)
attr title "packet drops: queue overflow, sum(packetBytes)"
scalar mobilityDrones.groundStation.wlan[0].mac packetDropRetryLimitReached:count 108
attr interpolationmode none
attr source packetDropReasonIsRetryLimitReached(packetDropped)
attr title "packet drops: retry limit reached, count"
scalar mobilityDrones.groundStation.wlan[0].mac packetDropRetryLimitReached:sum(packetBytes) 8424
attr interpolationmode none
attr source packetDropReasonIsRetryLimitReached(packetDropped)
attr title "packet drops: retry limit reached, sum(packetBytes)"
scalar mobilityDrones.groundStation.wlan[0].mac packetDropDuplicateDetected:count 4
attr interpolationmode none
attr source packetDropReasonIsDuplicateDetected(packetDropped)
attr title "packet drops: duplicate detected, count"
scalar mobilityDrones.groundStation.wlan[0].mac packetDropDuplicateDetected:sum(packetBytes) 312
attr interpolationmode none
attr source packetDropReasonIsDuplicateDetected(packetDropped)
attr title "packet drops: duplicate detected, sum(packetBytes)"
scalar mobilityDrones.groundStation.wlan[0].mac packetDropOther:count 0
attr interpolationmode none
attr source packetDropReasonIsOther(packetDropped)
attr title "packet drops: other, count"
scalar mobilityDrones.groundStation.wlan[0].mac packetDropOther:sum(packetBytes) 0
attr interpolationmode none
attr source packetDropReasonIsOther(packetDropped)
attr title "packet drops: other, sum(packetBytes)"
scalar mobilityDrones.groundStation.wlan[0].mac linkBroken:count 108
attr interpolationmode none
attr title "link breaks, count"
statistic mobilityDrones.groundStation.wlan[0].radio minSnir:histogram
field count 271
field mean 1016219600.6173
field stddev 9618100985.8036
field min 14.552093270881
field max 91755054109.427
field sum 275395511767.29
field sqrsum 2.5256986291721e+022
attr source minimumSnir(packetSentToUpper)
attr title "Min SNIR, histogram"
bin	-inf	0
bin	0	268
bin	2000000000	0
bin	4000000000	0
bin	6000000000	0
bin	8000000000	0
bin	10000000000	0
bin	12000000000	0
bin	14000000000	0
bin	16000000000	0
bin	18000000000	0
bin	20000000000	0
bin	22000000000	0
bin	24000000000	0
bin	26000000000	0
bin	28000000000	0
bin	30000000000	0
bin	32000000000	0
bin	34000000000	0
bin	36000000000	0
bin	38000000000	0
bin	40000000000	0
bin	42000000000	0
bin	44000000000	0
bin	46000000000	0
bin	48000000000	0
bin	50000000000	0
bin	52000000000	0
bin	54000000000	0
bin	56000000000	0
bin	58000000000	0
bin	60000000000	0
bin	62000000000	0
bin	64000000000	0
bin	66000000000	0
bin	68000000000	0
bin	70000000000	0
bin	72000000000	0
bin	74000000000	0
bin	76000000000	0
bin	78000000000	0
bin	80000000000	0
bin	82000000000	0
bin	84000000000	0
bin	86000000000	0
bin	88000000000	0
bin	90000000000	3
bin	92000000000	0
bin	94000000000	0
bin	96000000000	0
bin	98000000000	0
bin	100000000000	0
bin	102000000000	0
bin	104000000000	0
bin	106000000000	0
bin	108000000000	0
bin	110000000000	0
bin	112000000000	0
bin	114000000000	0
bin	116000000000	0
statistic mobilityDrones.groundStation.wlan[0].radio packetErrorRate:histogram
field count 271
field mean 0.17892490780243
field stddev 0.24982022901893
field min 0
field max 0.87637746280801
field sum 48.488650014458
field sqrsum 25.52656687661
attr source packetErrorRate(packetSentToUpper)
attr title "Packet error rate, histogram"
bin	-inf	0
bin	0	109
bin	0.02	11
bin	0.04	32
bin	0.06	3
bin	0.08	5
bin	0.1	4
bin	0.12	3
bin	0.14	22
bin	0.16	10
bin	0.18	1
bin	0.2	2
bin	0.22	1
bin	0.24	3
bin	0.26	1
bin	0.28	2
bin	0.3	1
bin	0.32	3
bin	0.34	2
bin	0.36	0
bin	0.38	1
bin	0.4	0
bin	0.42	2
bin	0.44	1
bin	0.46	9
bin	0.48	5
bin	0.5	0
bin	0.52	0
bin	0.54	0
bin	0.56	1
bin	0.58	1
bin	0.6	8
bin	0.62	5
bin	0.64	4
bin	0.66	0
bin	0.68	0
bin	0.7	4
bin	0.72	0
bin	0.74	0
bin	0.76	0
bin	0.78	8
bin	0.8	3
bin	0.82	1
bin	0.84	2
bin	0.86	1
bin	0.88	0
bin	0.9	0
bin	0.92	0
bin	0.94	0
bin	0.96	0
bin	0.98	0
bin	1	0
bin	1.02	0
bin	1.04	0
bin	1.06	0
statistic mobilityDrones.groundStation.wlan[0].radio bitErrorRate:histogram
field count 0
field mean nan
field stddev nan
field min nan
field max nan
field sum 0
field sqrsum 0
attr source bitErrorRate(packetSentToUpper)
attr title "Bit error rate, histogram"
bin	-inf	0
bin	0	0
bin	1	0
statistic mobilityDrones.groundStation.wlan[0].radio symbolErrorRate:histogram
field count 0
field mean nan
field stddev nan
field min nan
field max nan
field sum 0
field sqrsum 0
attr source symbolErrorRate(packetSentToUpper)
attr title "Symbol error rate, histogram"
bin	-inf	0
bin	0	0
bin	1	0
scalar mobilityDrones.groundStation.wlan[0].radio transmissionState:count 9272
attr interpolationmode sample-hold
attr source transmissionStateChanged
attr title "Radio transmission state, count"
scalar mobilityDrones.groundStation.wlan[0].radio receptionState:count 5339
attr interpolationmode sample-hold
attr source receptionStateChanged
attr title "Radio reception state, count"
scalar mobilityDrones.groundStation.wlan[0].radio radioMode:count 4639
attr interpolationmode sample-hold
attr source radioModeChanged
attr title "Radio mode, count"
statistic mobilityDrones.groundStation.wlan[0].radio radioChannel:histogram
field count 1
field mean 0
field stddev nan
field min 0
field max 0
field sum 0
field sqrsum 0
attr interpolationmode sample-hold
attr source radioChannelChanged
attr title "Radio channel, histogram"
bin	-inf	0
bin	-0.5	0
bin	-0.48	0
bin	-0.46	0
bin	-0.44	0
bin	-0.42	0
bin	-0.4	0
bin	-0.38	0
bin	-0.36	0
bin	-0.34	0
bin	-0.32	0
bin	-0.3	0
bin	-0.28	0
bin	-0.26	0
bin	-0.24	0
bin	-0.22	0
bin	-0.2	0
bin	-0.18	0
bin	-0.16	0
bin	-0.14	0
bin	-0.12	0
bin	-0.1	0
bin	-0.08	0
bin	-0.06	0
bin	-0.04	0
bin	-0.02	0
bin	0	1
bin	0.02	0
bin	0.04	0
bin	0.06	0
bin	0.08	0
bin	0.1	0
bin	0.12	0
bin	0.14	0
bin	0.16	0
bin	0.18	0
bin	0.2	0
bin	0.22	0
bin	0.24	0
bin	0.26	0
bin	0.28	0
bin	0.3	0
bin	0.32	0
bin	0.34	0
bin	0.36	0
bin	0.38	0
bin	0.4	0
bin	0.42	0
bin	0.44	0
bin	0.46	0
bin	0.48	0
bin	0.5	0
scalar mobilityDrones.groundStation.ipv4.ip packetDropAddressResolutionFailed:count 0
attr interpolationmode none
attr source packetDropReasonIsAddressResolutionFailed(packetDropped)
attr title "packet drop: address resolution failed, count"
scalar mobilityDrones.groundStation.ipv4.ip packetDropAddressResolutionFailed:sum(packetBytes) 0
attr interpolationmode none
attr source packetDropReasonIsAddressResolutionFailed(packetDropped)
attr title "packet drop: address resolution failed, sum(packetBytes)"
scalar mobilityDrones.groundStation.ipv4.ip packetDropHopLimitReached:count 0
attr interpolationmode none
attr source packetDropReasonIsHopLimitReached(packetDropped)
attr title "packet drop: hop limit reached, count"
scalar mobilityDrones.groundStation.ipv4.ip packetDropHopLimitReached:sum(packetBytes) 0
attr interpolationmode none
attr source packetDropReasonIsHopLimitReached(packetDropped)
attr title "packet drop: hop limit reached, sum(packetBytes)"
scalar mobilityDrones.groundStation.ipv4.ip packetDropForwardingDisabled:count 0
attr interpolationmode none
attr source packetDropReasonIsForwardingDisabled(packetDropped)
attr title "packet drop: forwarding disabled, count"
scalar mobilityDrones.groundStation.ipv4.ip packetDropForwardingDisabled:sum(packetBytes) 0
attr interpolationmode none
attr source packetDropReasonIsForwardingDisabled(packetDropped)
attr title "packet drop: forwarding disabled, sum(packetBytes)"
scalar mobilityDrones.groundStation.ipv4.ip packetDropNoInterfaceFound:count 0
attr interpolationmode none
attr source packetDropReasonIsNoInterfaceFound(packetDropped)
attr title "packet drop: no interface found, count"
scalar mobilityDrones.groundStation.ipv4.ip packetDropNoInterfaceFound:sum(packetBytes) 0
attr interpolationmode none
attr source packetDropReasonIsNoInterfaceFound(packetDropped)
attr title "packet drop: no interface found, sum(packetBytes)"
scalar mobilityDrones.groundStation.ipv4.ip packetDropNoRouteFound:count 0
attr interpolationmode none
attr source packetDropReasonIsNoRouteFound(packetDropped)
attr title "packet drop: no route found, count"
scalar mobilityDrones.groundStation.ipv4.ip packetDropNoRouteFound:sum(packetBytes) 0
attr interpolationmode none
attr source packetDropReasonIsNoRouteFound(packetDropped)
attr title "packet drop: no route found, sum(packetBytes)"
scalar mobilityDrones.groundStation.ipv4.ip packetDropUndefined:count 0
attr interpolationmode none
attr source packetDropReasonIsUndefined(packetDropped)
attr title "packet drop: undefined, count"
scalar mobilityDrones.groundStation.ipv4.ip packetDropUndefined:sum(packetBytes) 0
attr interpolationmode none
attr source packetDropReasonIsUndefined(packetDropped)
attr title "packet drop: undefined, sum(packetBytes)"
scalar mobilityDrones.groundStation.ipv4.arp arpReplySent:count 5
attr source arpReplySent
attr title "ARP replies sent, count"
scalar mobilityDrones.groundStation.ipv4.arp arpReplySent:sum(packetBytes) 140
attr source arpReplySent
attr title "ARP replies sent, sum(packetBytes)"
scalar mobilityDrones.groundStation.ipv4.arp arpRequestSent:count 2
attr source arpRequestSent
attr title "ARP request sent, count"
scalar mobilityDrones.groundStation.ipv4.arp arpRequestSent:sum(packetBytes) 56
attr source arpRequestSent
attr title "ARP request sent, sum(packetBytes)"
scalar mobilityDrones.groundStation.ipv4.arp arpResolutionFailed:count 0
attr title "ARP failed resolutions, count"
scalar mobilityDrones.groundStation.ipv4.arp arpResolutionCompleted:count 7
attr title "ARP completed resolutions, count"
scalar mobilityDrones.groundStation.ipv4.arp arpResolutionInitiated:count 2
attr title "ARP initiated resolutions, count"
scalar mobilityDrones.groundStation.udp packetReceived:count 1459
attr interpolationmode none
attr source packetReceived
attr title "packets received, count"
scalar mobilityDrones.groundStation.udp packetReceived:sum(packetBytes) 32098
attr interpolationmode none
attr source packetReceived
attr title "packets received, sum(packetBytes)"
scalar mobilityDrones.groundStation.udp packetSent:count 1549
attr interpolationmode none
attr source packetSent
attr title "packets sent, count"
scalar mobilityDrones.groundStation.udp packetSent:sum(packetBytes) 34078
attr interpolationmode none
attr source packetSent
attr title "packets sent, sum(packetBytes)"
scalar mobilityDrones.groundStation.udp passedUpPk:count 1459
attr interpolationmode none
attr source packetSentToUpper
attr title "packets passed up, count"
scalar mobilityDrones.groundStation.udp droppedPkWrongPort:count 0
attr interpolationmode none
attr source packetDropReasonIsNoPortFound(packetDropped)
attr title "packets dropped (wrong port), count"
scalar mobilityDrones.groundStation.udp droppedPkBadChecksum:count 0
attr interpolationmode none
attr source packetDropReasonIsIncorrectlyReceived(packetDropped)
attr title "packets dropped (checksum error), count"
scalar mobilityDrones.groundStation.app[0] "packets sent" 1549
scalar mobilityDrones.groundStation.app[0] "packets received" 0
scalar mobilityDrones.groundStation.app[0] packetReceived:count 80
attr interpolationmode none
attr source packetReceived
attr title "packets received, count"
scalar mobilityDrones.groundStation.app[0] packetReceived:sum(packetBytes) 1120
attr interpolationmode none
attr source packetReceived
attr title "packets received, sum(packetBytes)"
statistic mobilityDrones.groundStation.app[0] rcvdPkLifetime:stats
field count 80
field mean 0.005586417764225
field stddev 0.010427311407374
field min 5.4343612e-005
field max 0.057705208191
field sum 0.446913421138
field sqrsum 0.011086222106637
attr interpolationmode none
attr source dataAge(packetReceived)
attr title "received packet lifetime, stats"
attr unit s
scalar mobilityDrones.groundStation.app[0] packetSent:count 1549
attr interpolationmode none
attr source packetSent
attr title "packets sent, count"
scalar mobilityDrones.groundStation.app[0] packetSent:sum(packetBytes) 21686
attr interpolationmode none
attr source packetSent
attr title "packets sent, sum(packetBytes)"

