version 2
run Sim4drone-0-20210718-14:18:36-21020
attr configname Sim4drone
attr datetime 20210718-14:18:36
attr experiment Sim4drone
attr inifile mobilityDrones-omnetpp.ini
attr iterationvars ""
attr iterationvarsf ""
attr measurement ""
attr network mobilityDrones
attr processid 21020
attr repetition 0
attr replication #0
attr resultdir results
attr runnumber 0
attr seedset 0
param *.numUAVs 4
param *.drones[0].app[0].destAddresses "\"drones[1] drones[2] drones[3]\""
param *.drones[1].app[0].destAddresses "\"drones[0] drones[2] drones[3]\""
param *.drones[2].app[0].destAddresses "\"drones[0] drones[1] drones[3]\""
param *.drones[3].app[0].destAddresses "\"drones[0] drones[1] drones[2]\""
param *.drones[*].mobility.waypointFile "\"paths/mission.txt\""
param *.drones[*].app[*].timeoutDuration 5s
param *.drones[0].mobility.startTime 0s
param *.drones[1].mobility.startTime 40s
param *.drones[2].mobility.startTime 80s
param *.drones[3].mobility.startTime 110s
param *.drones[0].app[*].startTime "normal(1s, 1s)"
param *.drones[1].app[*].startTime "normal(40s, 1s)"
param *.drones[2].app[*].startTime "normal(80s, 1s)"
param *.drones[3].app[*].startTime "normal(110s, 1s)"
param *.sensor.osgModel "\"3d/drone.ive.100.scale.0,0,90.rot\""
param *.sensor.mobility.typename "\"StationaryMobility\""
param *.sensor*.mobility.coordinateSystemModule "\"\""
param *.sensor*.numApps 1
param *.sensor*.app[0].typename "\"UdpSensorCommunicationApp\""
param *.sensor*.app[0].destAddresses "\"drones[0] drones[1] drones[2] drones[3]\""
param *.sensor*.app[0].destPort 1000
param *.sensor*.app[0].sendInterval 5s
param *.sensor*.app[0].startTime exponential(1s)
param *.sensor*.app[0].messageLength 1454Byte
param *.sensor1.mobility.initialX 400m
param *.sensor1.mobility.initialY -200m
param *.sensor1.mobility.initialZ 3m
param *.visualizer.osgVisualizer.typename "\"IntegratedOsgVisualizer\""
param *.visualizer.osgVisualizer.sceneVisualizer.typename "\"SceneOsgEarthVisualizer\""
param *.visualizer.osgVisualizer.sceneVisualizer.mapFile "\"map.earth\""
param *.visualizer.osgVisualizer.sceneVisualizer.sceneImageSize 10000m
param *.visualizer.osgVisualizer.sceneVisualizer.axisLength 500m
param *.visualizer.osgVisualizer.sceneVisualizer.sceneMinX -200m
param *.visualizer.osgVisualizer.sceneVisualizer.sceneMinY -200m
param *.visualizer.osgVisualizer.sceneVisualizer.sceneMinZ 0m
param *.visualizer.osgVisualizer.sceneVisualizer.sceneMaxX 5000m
param *.visualizer.osgVisualizer.sceneVisualizer.sceneMaxY 5000m
param *.visualizer.osgVisualizer.sceneVisualizer.sceneMaxZ 5000m
param *.visualizer.osgVisualizer.networkNodeVisualizer.displayModuleName true
param *.visualizer.*.statisticVisualizer.signalName "\"dataLoad\""
param *.visualizer.*.statisticVisualizer.format "\"%s: (%v/20)\""
param *.visualizer.*.statisticVisualizer.sourceFilter "\"*.drones[*].**\""
param *.visualizer.*.mobilityVisualizer.displayMobility true
param *.visualizer.*.mobilityVisualizer.displayPositions true
param *.visualizer.*.mobilityVisualizer.displayOrientations true
param *.visualizer.*.mobilityVisualizer.displayVelocities true
param *.visualizer.*.mobilityVisualizer.displayMovementTrails true
param *.visualizer.*.mobilityVisualizer.animationSpeed 10
param *.visualizer.mediumVisualizer.displaySignals true
param **.constraintAreaMinX -5000m
param **.constraintAreaMinY -5000m
param **.constraintAreaMinZ -100m
param **.constraintAreaMaxX 5000m
param **.constraintAreaMaxY 5000m
param **.constraintAreaMaxZ 5000m
param *.drones*.wlan[0].radio.displayCommunicationRange true
param *.coordinateSystem.sceneLongitude -47.926634deg
param *.coordinateSystem.sceneLatitude -15.840075deg
param *.coordinateSystem.sceneHeading 90deg
param *.environment.ground.typename "\"FlatGround\""
param *.drones[*].osgModel "\"3d/drone.ive.80.scale.0,0,90.rot\""
param *.drones[*].mobility.coordinateSystemModule "\"coordinateSystem\""
param *.drones[*].mobility.waypointFile "\"paths/gradys-vai-e-volta-descendo-5s-v1.txt\""
param *.drones[*].mobility.waypointProximity 1m
param **.mobility.initFromDisplayString false
param *.drones[*].mobility.speed 10mps
param *.drones[*].numApps 1
param *.drones[*].app[0].typename "\"UdpMobileNodeCommunicationApp\""
param *.drones[*].app[0].localPort 1000
param *.drones[*].app[0].destPort 1000
param *.drones[*].app[0].sendInterval 1s
param *.drones[*].app[0].startTime 1s
param *.drones[*].app[0].stopTime -1s
param *.drones[*].app[0].messageLength 1454Byte
param *.drones[*].app[0].packetName "\"UAV-DEFAULT-PAYLOAD\""
param *.drones[*].mobility.typename "\"DroneMobility\""
param *.sensor.osgModel "\"3d/drone.ive.100.scale.0,0,90.rot\""
param *.sensor.mobility.typename "\"StationaryMobility\""
param *.sensor*.mobility.coordinateSystemModule "\"\""

scalar mobilityDrones.radioMedium.propagation "Arrival computation count" 10316
scalar mobilityDrones.radioMedium "transmission count" 2579
scalar mobilityDrones.radioMedium "signal send count" 10316
scalar mobilityDrones.radioMedium "reception computation count" 10316
scalar mobilityDrones.radioMedium "interference computation count" 33529
scalar mobilityDrones.radioMedium "reception decision computation count" 966
scalar mobilityDrones.radioMedium "listening decision computation count" 22248
scalar mobilityDrones.radioMedium "reception cache hit" 76.644252756458
attr unit %
scalar mobilityDrones.radioMedium "interference cache hit" 66.666666666667
attr unit %
scalar mobilityDrones.radioMedium "noise cache hit" 0
attr unit %
scalar mobilityDrones.radioMedium "snir cache hit" 50
attr unit %
scalar mobilityDrones.radioMedium "reception decision cache hit" 50
attr unit %
scalar mobilityDrones.radioMedium "reception result cache hit" 0
attr unit %
scalar mobilityDrones.drones[0].lo[0].lo rcvdPkFromHl:count 324
attr interpolationmode none
attr source packetReceivedFromUpper
attr title "packets received from higher layer, count"
scalar mobilityDrones.drones[0].lo[0].lo rcvdPkFromHl:sum(packetBytes) 13608
attr interpolationmode none
attr source packetReceivedFromUpper
attr title "packets received from higher layer, sum(packetBytes)"
scalar mobilityDrones.drones[0].lo[0].lo passedUpPk:count 324
attr interpolationmode none
attr source packetSentToUpper
attr title "packets passed to higher layer, count"
scalar mobilityDrones.drones[0].lo[0].lo passedUpPk:sum(packetBytes) 13608
attr interpolationmode none
attr source packetSentToUpper
attr title "packets passed to higher layer, sum(packetBytes)"
scalar mobilityDrones.drones[0].wlan[0].mac.dcf.channelAccess.pendingQueue packetPopped:count 377
attr interpolationmode none
attr title "packet popped, count"
scalar mobilityDrones.drones[0].wlan[0].mac.dcf.channelAccess.pendingQueue packetPopped:sum(packetBytes) 29364
attr interpolationmode none
attr title "packet popped, sum(packetBytes)"
statistic mobilityDrones.drones[0].wlan[0].mac.dcf.channelAccess.pendingQueue queueingTime:histogram
field count 377
field mean 0.00015530741365782
field stddev 0.001187485812375
field min 0
field max 0.01389
field sum 0.058550894949
field sqrsum 0.00053929946858842
attr interpolationmode none
attr source queueingTime(packetPopped)
attr title "queueing times, histogram"
attr unit s
bin	-inf	0
bin	0	364
bin	0.00024	2
bin	0.00048	0
bin	0.00072	2
bin	0.00096	1
bin	0.0012	0
bin	0.00144	0
bin	0.00168	0
bin	0.00192	0
bin	0.00216	0
bin	0.0024	0
bin	0.00264	0
bin	0.00288	1
bin	0.00312	1
bin	0.00336	1
bin	0.0036	1
bin	0.00384	1
bin	0.00408	0
bin	0.00432	0
bin	0.00456	0
bin	0.0048	0
bin	0.00504	0
bin	0.00528	0
bin	0.00552	0
bin	0.00576	0
bin	0.006	0
bin	0.00624	0
bin	0.00648	0
bin	0.00672	0
bin	0.00696	0
bin	0.0072	0
bin	0.00744	0
bin	0.00768	0
bin	0.00792	0
bin	0.00816	0
bin	0.0084	0
bin	0.00864	0
bin	0.00888	0
bin	0.00912	0
bin	0.00936	0
bin	0.0096	0
bin	0.00984	0
bin	0.01008	0
bin	0.01032	0
bin	0.01056	1
bin	0.0108	0
bin	0.01104	0
bin	0.01128	0
bin	0.01152	0
bin	0.01176	0
bin	0.012	0
bin	0.01224	0
bin	0.01248	0
bin	0.01272	0
bin	0.01296	1
bin	0.0132	0
bin	0.01344	0
bin	0.01368	1
bin	0.01392	0
scalar mobilityDrones.drones[0].wlan[0].mac.dcf.channelAccess.pendingQueue queueLength:max 3
attr interpolationmode sample-hold
attr source "count(packetPushed) - count(packetPopped) - count(packetRemoved) - count(packetDropped)"
attr title "queue length, max"
scalar mobilityDrones.drones[0].wlan[0].mac.dcf.channelAccess.pendingQueue queueLength:timeavg 0.00016113417332949
attr interpolationmode sample-hold
attr source "count(packetPushed) - count(packetPopped) - count(packetRemoved) - count(packetDropped)"
attr title "queue length, timeavg"
scalar mobilityDrones.drones[0].wlan[0].mac.dcf.channelAccess.pendingQueue packetPushed:count 377
attr interpolationmode none
attr title "packet pushed, count"
scalar mobilityDrones.drones[0].wlan[0].mac.dcf.channelAccess.pendingQueue packetPushed:sum(packetBytes) 29364
attr interpolationmode none
attr title "packet pushed, sum(packetBytes)"
scalar mobilityDrones.drones[0].wlan[0].mac.dcf.channelAccess.pendingQueue packetDropQueueOverflow:count 0
attr interpolationmode none
attr source packetDropReasonIsQueueOverflow(packetDropped)
attr title "packet drops: queue overflow, count"
scalar mobilityDrones.drones[0].wlan[0].mac.dcf.channelAccess.pendingQueue packetDropQueueOverflow:sum(packetBytes) 0
attr interpolationmode none
attr source packetDropReasonIsQueueOverflow(packetDropped)
attr title "packet drops: queue overflow, sum(packetBytes)"
scalar mobilityDrones.drones[0].wlan[0].mac.dcf.channelAccess.pendingQueue packetRemoved:count 0
attr interpolationmode none
attr title "packets removed, count"
scalar mobilityDrones.drones[0].wlan[0].mac.dcf.channelAccess.pendingQueue packetRemoved:sum(packetBytes) 0
attr interpolationmode none
attr title "packets removed, sum(packetBytes)"
statistic mobilityDrones.drones[0].wlan[0].mac.dcf.channelAccess.inProgressFrames queueingTime:histogram
field count 377
field mean 0.0048568610137268
field stddev 0.016169698318212
field min 5e-005
field max 0.096957
field sum 1.831036602175
field sqrsum 0.10720172831976
attr interpolationmode none
attr source queueingTime(packetDequeued)
attr title "queueing times, histogram"
bin	-inf	0
bin	0	340
bin	0.01	2
bin	0.02	7
bin	0.03	7
bin	0.04	4
bin	0.05	5
bin	0.06	2
bin	0.07	7
bin	0.08	2
bin	0.09	1
bin	0.1	0
bin	0.11	0
bin	0.12	0
bin	0.13	0
bin	0.14	0
bin	0.15	0
bin	0.16	0
bin	0.17	0
bin	0.18	0
bin	0.19	0
bin	0.2	0
bin	0.21	0
bin	0.22	0
bin	0.23	0
bin	0.24	0
bin	0.25	0
bin	0.26	0
bin	0.27	0
bin	0.28	0
bin	0.29	0
bin	0.3	0
bin	0.31	0
bin	0.32	0
bin	0.33	0
bin	0.34	0
bin	0.35	0
bin	0.36	0
bin	0.37	0
bin	0.38	0
bin	0.39	0
bin	0.4	0
bin	0.41	0
bin	0.42	0
bin	0.43	0
bin	0.44	0
bin	0.45	0
bin	0.46	0
bin	0.47	0
bin	0.48	0
bin	0.49	0
bin	0.5	0
bin	0.51	0
scalar mobilityDrones.drones[0].wlan[0].mac.dcf.channelAccess.inProgressFrames queueLength:max 2
attr interpolationmode sample-hold
attr source "count(packetEnqueued) - count(packetDequeued)"
attr title "queue length, max"
scalar mobilityDrones.drones[0].wlan[0].mac.dcf.channelAccess.inProgressFrames queueLength:timeavg 0.0050390813626069
attr interpolationmode sample-hold
attr source "count(packetEnqueued) - count(packetDequeued)"
attr title "queue length, timeavg"
scalar mobilityDrones.drones[0].wlan[0].mac.dcf.channelAccess.contention stateChanged:count 5242
attr interpolationmode none
attr title "contention state changed, count"
scalar mobilityDrones.drones[0].wlan[0].mac.dcf.channelAccess.contention channelAccessGranted:count 594
attr title "channel access granted, count"
scalar mobilityDrones.drones[0].wlan[0].mac.dcf.channelAccess channelOwnershipChanged:count 1188
attr interpolationmode sample-hold
attr title "channel ownership, count"
scalar mobilityDrones.drones[0].wlan[0].mac.dcf.originatorMacDataService packetAggregated:count 0
attr title "packets aggregated, count"
scalar mobilityDrones.drones[0].wlan[0].mac.dcf.originatorMacDataService packetFragmented:count 0
attr title "packets fragmented, count"
scalar mobilityDrones.drones[0].wlan[0].mac.dcf.recipientMacDataService packetDropDuplicateDetected:count 0
attr interpolationmode none
attr source packetDropReasonIsDuplicateDetected(packetDropped)
attr title "packet drops: duplicate detected, count"
scalar mobilityDrones.drones[0].wlan[0].mac.dcf.recipientMacDataService packetDropDuplicateDetected:sum(packetBytes) 0
attr interpolationmode none
attr source packetDropReasonIsDuplicateDetected(packetDropped)
attr title "packet drops: duplicate detected, sum(packetBytes)"
scalar mobilityDrones.drones[0].wlan[0].mac.dcf.recipientMacDataService packetDeaggregated:count 0
attr title "packets deaggregated, count"
scalar mobilityDrones.drones[0].wlan[0].mac.dcf.recipientMacDataService packetDefragmented:count 63
attr title "packets defragmented, count"
scalar mobilityDrones.drones[0].wlan[0].mac.dcf.recoveryProcedure retryLimitReached:count 36
attr title "retry limit reached, count"
scalar mobilityDrones.drones[0].wlan[0].mac.dcf packetReceivedFromPeer:count 79
attr interpolationmode none
attr title "packets received, count"
scalar mobilityDrones.drones[0].wlan[0].mac.dcf packetReceivedFromPeer:sum(packetBytes) 4592
attr interpolationmode none
attr title "packets received, sum(packetBytes)"
scalar mobilityDrones.drones[0].wlan[0].mac.dcf packetReceivedFromPeerUnicast:count 39
attr interpolationmode none
attr source ieee80211Unicast(packetReceivedFromPeer)
attr title "packets received: unicast, count"
scalar mobilityDrones.drones[0].wlan[0].mac.dcf packetReceivedFromPeerUnicast:sum(packetBytes) 2004
attr interpolationmode none
attr source ieee80211Unicast(packetReceivedFromPeer)
attr title "packets received: unicast, sum(packetBytes)"
scalar mobilityDrones.drones[0].wlan[0].mac.dcf packetReceivedFromPeerMulticast:count 40
attr interpolationmode none
attr source ieee80211Multicast(packetReceivedFromPeer)
attr title "packets received: multicast, count"
scalar mobilityDrones.drones[0].wlan[0].mac.dcf packetReceivedFromPeerMulticast:sum(packetBytes) 2588
attr interpolationmode none
attr source ieee80211Multicast(packetReceivedFromPeer)
attr title "packets received: multicast, sum(packetBytes)"
scalar mobilityDrones.drones[0].wlan[0].mac.dcf packetReceivedFromPeerBroadcast:count 38
attr interpolationmode none
attr source ieee80211Broadcast(packetReceivedFromPeer)
attr title "packets received: broadcast, count"
scalar mobilityDrones.drones[0].wlan[0].mac.dcf packetReceivedFromPeerBroadcast:sum(packetBytes) 2432
attr interpolationmode none
attr source ieee80211Broadcast(packetReceivedFromPeer)
attr title "packets received: broadcast, sum(packetBytes)"
scalar mobilityDrones.drones[0].wlan[0].mac.dcf packetReceivedFromPeerWithRetry:count 4
attr interpolationmode none
attr source ieee80211Retry(packetReceivedFromPeer)
attr title "packets received: with retry, count"
scalar mobilityDrones.drones[0].wlan[0].mac.dcf packetReceivedFromPeerWithRetry:sum(packetBytes) 312
attr interpolationmode none
attr source ieee80211Retry(packetReceivedFromPeer)
attr title "packets received: with retry, sum(packetBytes)"
scalar mobilityDrones.drones[0].wlan[0].mac.dcf packetReceivedFromPeerWithoutRetry:count 75
attr interpolationmode none
attr source ieee80211NotRetry(packetReceivedFromPeer)
attr title "packets received: without retry, count"
scalar mobilityDrones.drones[0].wlan[0].mac.dcf packetReceivedFromPeerWithoutRetry:sum(packetBytes) 4280
attr interpolationmode none
attr source ieee80211NotRetry(packetReceivedFromPeer)
attr title "packets received: without retry, sum(packetBytes)"
scalar mobilityDrones.drones[0].wlan[0].mac.dcf packetSentToPeer:count 617
attr interpolationmode none
attr title "packets sent, count"
scalar mobilityDrones.drones[0].wlan[0].mac.dcf packetSentToPeer:sum(packetBytes) 46612
attr interpolationmode none
attr title "packets sent, sum(packetBytes)"
scalar mobilityDrones.drones[0].wlan[0].mac.dcf packetSentToPeerUnicast:count 292
attr interpolationmode none
attr source ieee80211Unicast(packetSentToPeer)
attr title "packets sent: unicast, count"
scalar mobilityDrones.drones[0].wlan[0].mac.dcf packetSentToPeerUnicast:sum(packetBytes) 21276
attr interpolationmode none
attr source ieee80211Unicast(packetSentToPeer)
attr title "packets sent: unicast, sum(packetBytes)"
scalar mobilityDrones.drones[0].wlan[0].mac.dcf packetSentToPeerMulticast:count 325
attr interpolationmode none
attr source ieee80211Multicast(packetSentToPeer)
attr title "packets sent: multicast, count"
scalar mobilityDrones.drones[0].wlan[0].mac.dcf packetSentToPeerMulticast:sum(packetBytes) 25336
attr interpolationmode none
attr source ieee80211Multicast(packetSentToPeer)
attr title "packets sent: multicast, sum(packetBytes)"
scalar mobilityDrones.drones[0].wlan[0].mac.dcf packetSentToPeerBroadcast:count 1
attr interpolationmode none
attr source ieee80211Broadcast(packetSentToPeer)
attr title "packets sent: broadcast , count"
scalar mobilityDrones.drones[0].wlan[0].mac.dcf packetSentToPeerBroadcast:sum(packetBytes) 64
attr interpolationmode none
attr source ieee80211Broadcast(packetSentToPeer)
attr title "packets sent: broadcast , sum(packetBytes)"
scalar mobilityDrones.drones[0].wlan[0].mac.dcf packetSentToPeerWithRetry:count 217
attr interpolationmode none
attr source ieee80211Retry(packetSentToPeer)
attr title "packets sent: with retry, count"
scalar mobilityDrones.drones[0].wlan[0].mac.dcf packetSentToPeerWithRetry:sum(packetBytes) 16926
attr interpolationmode none
attr source ieee80211Retry(packetSentToPeer)
attr title "packets sent: with retry, sum(packetBytes)"
scalar mobilityDrones.drones[0].wlan[0].mac.dcf packetSentToPeerWithoutRetry:count 400
attr interpolationmode none
attr source ieee80211NotRetry(packetSentToPeer)
attr title "packets sent: without retry, count"
scalar mobilityDrones.drones[0].wlan[0].mac.dcf packetSentToPeerWithoutRetry:sum(packetBytes) 29686
attr interpolationmode none
attr source ieee80211NotRetry(packetSentToPeer)
attr title "packets sent: without retry, sum(packetBytes)"
scalar mobilityDrones.drones[0].wlan[0].mac.dcf packetDrop:count 40
attr interpolationmode none
attr source packetDropped
attr title "packet drops, count"
scalar mobilityDrones.drones[0].wlan[0].mac.dcf packetDrop:sum(packetBytes) 2978
attr interpolationmode none
attr source packetDropped
attr title "packet drops, sum(packetBytes)"
scalar mobilityDrones.drones[0].wlan[0].mac.dcf packetDropNotAddressedToUs:count 4
attr interpolationmode none
attr source packetDropReasonIsNotAddressedToUs(packetDropped)
attr title "packet drops: not addressed to us, count"
scalar mobilityDrones.drones[0].wlan[0].mac.dcf packetDropNotAddressedToUs:sum(packetBytes) 170
attr interpolationmode none
attr source packetDropReasonIsNotAddressedToUs(packetDropped)
attr title "packet drops: not addressed to us, sum(packetBytes)"
scalar mobilityDrones.drones[0].wlan[0].mac.dcf packetDropQueueOverflow:count 0
attr interpolationmode none
attr source packetDropReasonIsQueueOverflow(packetDropped)
attr title "packet drops: queue overflow, count"
scalar mobilityDrones.drones[0].wlan[0].mac.dcf packetDropQueueOverflow:sum(packetBytes) 0
attr interpolationmode none
attr source packetDropReasonIsQueueOverflow(packetDropped)
attr title "packet drops: queue overflow, sum(packetBytes)"
scalar mobilityDrones.drones[0].wlan[0].mac.dcf packetDropRetryLimitReached:count 36
attr interpolationmode none
attr source packetDropReasonIsRetryLimitReached(packetDropped)
attr title "packet drops: retry limit reached, count"
scalar mobilityDrones.drones[0].wlan[0].mac.dcf packetDropRetryLimitReached:sum(packetBytes) 2808
attr interpolationmode none
attr source packetDropReasonIsRetryLimitReached(packetDropped)
attr title "packet drops: retry limit reached, sum(packetBytes)"
scalar mobilityDrones.drones[0].wlan[0].mac.dcf linkBroken:count 36
attr interpolationmode none
attr title "link breaks, count"
scalar mobilityDrones.drones[0].wlan[0].mac.dcf frameSequenceFinished:count 594
attr title "finished frame sequences, count"
statistic mobilityDrones.drones[0].wlan[0].mac.dcf frameSequenceDuration:histogram
field count 594
field mean 7.8611644175084e-005
field stddev 2.7144008093346e-005
field min 5e-005
field max 0.000109
field sum 0.04669531664
field sqrsum 4.1077163413419e-006
attr source frameSequenceDuration(frameSequenceFinished)
attr title "frame sequence durations, histogram"
bin	-inf	0
bin	0	594
bin	0.01	0
bin	0.02	0
bin	0.03	0
bin	0.04	0
bin	0.05	0
bin	0.06	0
bin	0.07	0
bin	0.08	0
bin	0.09	0
bin	0.1	0
bin	0.11	0
bin	0.12	0
bin	0.13	0
bin	0.14	0
bin	0.15	0
bin	0.16	0
bin	0.17	0
bin	0.18	0
bin	0.19	0
bin	0.2	0
bin	0.21	0
bin	0.22	0
bin	0.23	0
bin	0.24	0
bin	0.25	0
bin	0.26	0
bin	0.27	0
bin	0.28	0
bin	0.29	0
bin	0.3	0
bin	0.31	0
bin	0.32	0
bin	0.33	0
bin	0.34	0
bin	0.35	0
bin	0.36	0
bin	0.37	0
bin	0.38	0
bin	0.39	0
bin	0.4	0
bin	0.41	0
bin	0.42	0
bin	0.43	0
bin	0.44	0
bin	0.45	0
bin	0.46	0
bin	0.47	0
bin	0.48	0
bin	0.49	0
bin	0.5	0
bin	0.51	0
statistic mobilityDrones.drones[0].wlan[0].mac.dcf frameSequenceNumPackets:histogram
field count 594
field mean 1.452861952862
field stddev 0.49819257584886
field min 1
field max 2
field sum 863
field sqrsum 1401
attr source frameSequenceNumPackets(frameSequenceFinished)
attr title "frame sequences: number of packets, histogram"
bin	-inf	0
bin	0	0
bin	1	325
bin	2	269
bin	3	0
scalar mobilityDrones.drones[0].wlan[0].mac packetReceivedFromLower:count 103
attr interpolationmode none
attr title "packets received from lower layer, count"
scalar mobilityDrones.drones[0].wlan[0].mac packetReceivedFromLower:sum(packetBytes) 6202
attr interpolationmode none
attr title "packets received from lower layer, sum(packetBytes)"
scalar mobilityDrones.drones[0].wlan[0].mac packetSentToLower:count 617
attr interpolationmode none
attr title "packets sent to lower layer, count"
scalar mobilityDrones.drones[0].wlan[0].mac packetSentToLower:sum(packetBytes) 46612
attr interpolationmode none
attr title "packets sent to lower layer, sum(packetBytes)"
scalar mobilityDrones.drones[0].wlan[0].mac packetReceivedFromUpper:count 377
attr interpolationmode none
attr title "packets received from upper layer, count"
scalar mobilityDrones.drones[0].wlan[0].mac packetReceivedFromUpper:sum(packetBytes) 18808
attr interpolationmode none
attr title "packets received from upper layer, sum(packetBytes)"
scalar mobilityDrones.drones[0].wlan[0].mac packetSentToUpper:count 63
attr interpolationmode none
attr title "packets sent to upper layer, count"
scalar mobilityDrones.drones[0].wlan[0].mac packetSentToUpper:sum(packetBytes) 2604
attr interpolationmode none
attr title "packets sent to upper layer, sum(packetBytes)"
scalar mobilityDrones.drones[0].wlan[0].mac packetDrop:count 60
attr interpolationmode none
attr source packetDropped
attr title "packet drops, count"
scalar mobilityDrones.drones[0].wlan[0].mac packetDrop:sum(packetBytes) 4418
attr interpolationmode none
attr source packetDropped
attr title "packet drops, sum(packetBytes)"
scalar mobilityDrones.drones[0].wlan[0].mac packetDropIncorrectlyReceived:count 20
attr interpolationmode none
attr source packetDropReasonIsIncorrectlyReceived(packetDropped)
attr title "packet drops: incorrectly received, count"
scalar mobilityDrones.drones[0].wlan[0].mac packetDropIncorrectlyReceived:sum(packetBytes) 1440
attr interpolationmode none
attr source packetDropReasonIsIncorrectlyReceived(packetDropped)
attr title "packet drops: incorrectly received, sum(packetBytes)"
scalar mobilityDrones.drones[0].wlan[0].mac packetDropNotAddressedToUs:count 4
attr interpolationmode none
attr source packetDropReasonIsNotAddressedToUs(packetDropped)
attr title "packet drops: not addressed to us, count"
scalar mobilityDrones.drones[0].wlan[0].mac packetDropNotAddressedToUs:sum(packetBytes) 170
attr interpolationmode none
attr source packetDropReasonIsNotAddressedToUs(packetDropped)
attr title "packet drops: not addressed to us, sum(packetBytes)"
scalar mobilityDrones.drones[0].wlan[0].mac packetDropQueueOverflow:count 0
attr interpolationmode none
attr source packetDropReasonIsQueueOverflow(packetDropped)
attr title "packet drops: queue overflow, count"
scalar mobilityDrones.drones[0].wlan[0].mac packetDropQueueOverflow:sum(packetBytes) 0
attr interpolationmode none
attr source packetDropReasonIsQueueOverflow(packetDropped)
attr title "packet drops: queue overflow, sum(packetBytes)"
scalar mobilityDrones.drones[0].wlan[0].mac packetDropRetryLimitReached:count 36
attr interpolationmode none
attr source packetDropReasonIsRetryLimitReached(packetDropped)
attr title "packet drops: retry limit reached, count"
scalar mobilityDrones.drones[0].wlan[0].mac packetDropRetryLimitReached:sum(packetBytes) 2808
attr interpolationmode none
attr source packetDropReasonIsRetryLimitReached(packetDropped)
attr title "packet drops: retry limit reached, sum(packetBytes)"
scalar mobilityDrones.drones[0].wlan[0].mac packetDropDuplicateDetected:count 0
attr interpolationmode none
attr source packetDropReasonIsDuplicateDetected(packetDropped)
attr title "packet drops: duplicate detected, count"
scalar mobilityDrones.drones[0].wlan[0].mac packetDropDuplicateDetected:sum(packetBytes) 0
attr interpolationmode none
attr source packetDropReasonIsDuplicateDetected(packetDropped)
attr title "packet drops: duplicate detected, sum(packetBytes)"
scalar mobilityDrones.drones[0].wlan[0].mac packetDropOther:count 0
attr interpolationmode none
attr source packetDropReasonIsOther(packetDropped)
attr title "packet drops: other, count"
scalar mobilityDrones.drones[0].wlan[0].mac packetDropOther:sum(packetBytes) 0
attr interpolationmode none
attr source packetDropReasonIsOther(packetDropped)
attr title "packet drops: other, sum(packetBytes)"
scalar mobilityDrones.drones[0].wlan[0].mac linkBroken:count 36
attr interpolationmode none
attr title "link breaks, count"
statistic mobilityDrones.drones[0].wlan[0].radio minSnir:histogram
field count 103
field mean 31.825002813763
field stddev 27.19675684173
field min 14.643788634157
field max 125.92981372192
field sum 3277.9752898176
field sqrsum 179767.25825813
attr source minimumSnir(packetSentToUpper)
attr title "Min SNIR, histogram"
bin	-inf	0
bin	0	0
bin	2	0
bin	4	0
bin	6	0
bin	8	0
bin	10	0
bin	12	0
bin	14	22
bin	16	17
bin	18	11
bin	20	9
bin	22	12
bin	24	1
bin	26	1
bin	28	1
bin	30	3
bin	32	0
bin	34	1
bin	36	0
bin	38	3
bin	40	3
bin	42	0
bin	44	1
bin	46	2
bin	48	0
bin	50	0
bin	52	2
bin	54	0
bin	56	2
bin	58	0
bin	60	0
bin	62	1
bin	64	1
bin	66	1
bin	68	0
bin	70	1
bin	72	0
bin	74	0
bin	76	0
bin	78	0
bin	80	0
bin	82	0
bin	84	0
bin	86	1
bin	88	0
bin	90	0
bin	92	0
bin	94	0
bin	96	0
bin	98	1
bin	100	0
bin	102	0
bin	104	0
bin	106	0
bin	108	0
bin	110	0
bin	112	1
bin	114	1
bin	116	1
bin	118	0
bin	120	1
bin	122	0
bin	124	2
bin	126	0
bin	128	0
bin	130	0
bin	132	0
bin	134	0
bin	136	0
bin	138	0
bin	140	0
bin	142	0
bin	144	0
bin	146	0
bin	148	0
bin	150	0
bin	152	0
bin	154	0
statistic mobilityDrones.drones[0].wlan[0].radio packetErrorRate:histogram
field count 103
field mean 0.17270299106112
field stddev 0.26080982485508
field min 0
field max 0.77841378436229
field sum 17.788408079295
field sqrsum 10.010331285086
attr source packetErrorRate(packetSentToUpper)
attr title "Packet error rate, histogram"
bin	-inf	0
bin	0	54
bin	0.02	5
bin	0.04	2
bin	0.06	3
bin	0.08	4
bin	0.1	3
bin	0.12	2
bin	0.14	1
bin	0.16	0
bin	0.18	0
bin	0.2	0
bin	0.22	1
bin	0.24	3
bin	0.26	0
bin	0.28	0
bin	0.3	0
bin	0.32	0
bin	0.34	1
bin	0.36	0
bin	0.38	0
bin	0.4	3
bin	0.42	1
bin	0.44	0
bin	0.46	2
bin	0.48	1
bin	0.5	0
bin	0.52	0
bin	0.54	1
bin	0.56	2
bin	0.58	0
bin	0.6	0
bin	0.62	0
bin	0.64	3
bin	0.66	3
bin	0.68	0
bin	0.7	0
bin	0.72	0
bin	0.74	4
bin	0.76	4
bin	0.78	0
bin	0.8	0
bin	0.82	0
bin	0.84	0
bin	0.86	0
bin	0.88	0
bin	0.9	0
bin	0.92	0
bin	0.94	0
bin	0.96	0
bin	0.98	0
statistic mobilityDrones.drones[0].wlan[0].radio bitErrorRate:histogram
field count 0
field mean nan
field stddev nan
field min nan
field max nan
field sum 0
field sqrsum 0
attr source bitErrorRate(packetSentToUpper)
attr title "Bit error rate, histogram"
bin	-inf	0
bin	0	0
bin	1	0
statistic mobilityDrones.drones[0].wlan[0].radio symbolErrorRate:histogram
field count 0
field mean nan
field stddev nan
field min nan
field max nan
field sum 0
field sqrsum 0
attr source symbolErrorRate(packetSentToUpper)
attr title "Symbol error rate, histogram"
bin	-inf	0
bin	0	0
bin	1	0
scalar mobilityDrones.drones[0].wlan[0].radio transmissionState:count 2468
attr interpolationmode sample-hold
attr source transmissionStateChanged
attr title "Radio transmission state, count"
scalar mobilityDrones.drones[0].wlan[0].radio receptionState:count 1447
attr interpolationmode sample-hold
attr source receptionStateChanged
attr title "Radio reception state, count"
scalar mobilityDrones.drones[0].wlan[0].radio radioMode:count 1237
attr interpolationmode sample-hold
attr source radioModeChanged
attr title "Radio mode, count"
statistic mobilityDrones.drones[0].wlan[0].radio radioChannel:histogram
field count 1
field mean 0
field stddev nan
field min 0
field max 0
field sum 0
field sqrsum 0
attr interpolationmode sample-hold
attr source radioChannelChanged
attr title "Radio channel, histogram"
bin	-inf	0
bin	-0.5	0
bin	-0.48	0
bin	-0.46	0
bin	-0.44	0
bin	-0.42	0
bin	-0.4	0
bin	-0.38	0
bin	-0.36	0
bin	-0.34	0
bin	-0.32	0
bin	-0.3	0
bin	-0.28	0
bin	-0.26	0
bin	-0.24	0
bin	-0.22	0
bin	-0.2	0
bin	-0.18	0
bin	-0.16	0
bin	-0.14	0
bin	-0.12	0
bin	-0.1	0
bin	-0.08	0
bin	-0.06	0
bin	-0.04	0
bin	-0.02	0
bin	0	1
bin	0.02	0
bin	0.04	0
bin	0.06	0
bin	0.08	0
bin	0.1	0
bin	0.12	0
bin	0.14	0
bin	0.16	0
bin	0.18	0
bin	0.2	0
bin	0.22	0
bin	0.24	0
bin	0.26	0
bin	0.28	0
bin	0.3	0
bin	0.32	0
bin	0.34	0
bin	0.36	0
bin	0.38	0
bin	0.4	0
bin	0.42	0
bin	0.44	0
bin	0.46	0
bin	0.48	0
bin	0.5	0
scalar mobilityDrones.drones[0].ipv4.ip packetDropAddressResolutionFailed:count 0
attr interpolationmode none
attr source packetDropReasonIsAddressResolutionFailed(packetDropped)
attr title "packet drop: address resolution failed, count"
scalar mobilityDrones.drones[0].ipv4.ip packetDropAddressResolutionFailed:sum(packetBytes) 0
attr interpolationmode none
attr source packetDropReasonIsAddressResolutionFailed(packetDropped)
attr title "packet drop: address resolution failed, sum(packetBytes)"
scalar mobilityDrones.drones[0].ipv4.ip packetDropHopLimitReached:count 0
attr interpolationmode none
attr source packetDropReasonIsHopLimitReached(packetDropped)
attr title "packet drop: hop limit reached, count"
scalar mobilityDrones.drones[0].ipv4.ip packetDropHopLimitReached:sum(packetBytes) 0
attr interpolationmode none
attr source packetDropReasonIsHopLimitReached(packetDropped)
attr title "packet drop: hop limit reached, sum(packetBytes)"
scalar mobilityDrones.drones[0].ipv4.ip packetDropForwardingDisabled:count 0
attr interpolationmode none
attr source packetDropReasonIsForwardingDisabled(packetDropped)
attr title "packet drop: forwarding disabled, count"
scalar mobilityDrones.drones[0].ipv4.ip packetDropForwardingDisabled:sum(packetBytes) 0
attr interpolationmode none
attr source packetDropReasonIsForwardingDisabled(packetDropped)
attr title "packet drop: forwarding disabled, sum(packetBytes)"
scalar mobilityDrones.drones[0].ipv4.ip packetDropNoInterfaceFound:count 0
attr interpolationmode none
attr source packetDropReasonIsNoInterfaceFound(packetDropped)
attr title "packet drop: no interface found, count"
scalar mobilityDrones.drones[0].ipv4.ip packetDropNoInterfaceFound:sum(packetBytes) 0
attr interpolationmode none
attr source packetDropReasonIsNoInterfaceFound(packetDropped)
attr title "packet drop: no interface found, sum(packetBytes)"
scalar mobilityDrones.drones[0].ipv4.ip packetDropNoRouteFound:count 0
attr interpolationmode none
attr source packetDropReasonIsNoRouteFound(packetDropped)
attr title "packet drop: no route found, count"
scalar mobilityDrones.drones[0].ipv4.ip packetDropNoRouteFound:sum(packetBytes) 0
attr interpolationmode none
attr source packetDropReasonIsNoRouteFound(packetDropped)
attr title "packet drop: no route found, sum(packetBytes)"
scalar mobilityDrones.drones[0].ipv4.ip packetDropUndefined:count 0
attr interpolationmode none
attr source packetDropReasonIsUndefined(packetDropped)
attr title "packet drop: undefined, count"
scalar mobilityDrones.drones[0].ipv4.ip packetDropUndefined:sum(packetBytes) 0
attr interpolationmode none
attr source packetDropReasonIsUndefined(packetDropped)
attr title "packet drop: undefined, sum(packetBytes)"
scalar mobilityDrones.drones[0].ipv4.arp arpReplySent:count 2
attr source arpReplySent
attr title "ARP replies sent, count"
scalar mobilityDrones.drones[0].ipv4.arp arpReplySent:sum(packetBytes) 56
attr source arpReplySent
attr title "ARP replies sent, sum(packetBytes)"
scalar mobilityDrones.drones[0].ipv4.arp arpRequestSent:count 1
attr source arpRequestSent
attr title "ARP request sent, count"
scalar mobilityDrones.drones[0].ipv4.arp arpRequestSent:sum(packetBytes) 28
attr source arpRequestSent
attr title "ARP request sent, sum(packetBytes)"
scalar mobilityDrones.drones[0].ipv4.arp arpResolutionFailed:count 0
attr title "ARP failed resolutions, count"
scalar mobilityDrones.drones[0].ipv4.arp arpResolutionCompleted:count 9
attr title "ARP completed resolutions, count"
scalar mobilityDrones.drones[0].ipv4.arp arpResolutionInitiated:count 1
attr title "ARP initiated resolutions, count"
scalar mobilityDrones.drones[0].udp packetReceived:count 348
attr interpolationmode none
attr source packetReceived
attr title "packets received, count"
scalar mobilityDrones.drones[0].udp packetReceived:sum(packetBytes) 7656
attr interpolationmode none
attr source packetReceived
attr title "packets received, sum(packetBytes)"
scalar mobilityDrones.drones[0].udp packetSent:count 374
attr interpolationmode none
attr source packetSent
attr title "packets sent, count"
scalar mobilityDrones.drones[0].udp packetSent:sum(packetBytes) 8228
attr interpolationmode none
attr source packetSent
attr title "packets sent, sum(packetBytes)"
scalar mobilityDrones.drones[0].udp passedUpPk:count 348
attr interpolationmode none
attr source packetSentToUpper
attr title "packets passed up, count"
scalar mobilityDrones.drones[0].udp droppedPkWrongPort:count 0
attr interpolationmode none
attr source packetDropReasonIsNoPortFound(packetDropped)
attr title "packets dropped (wrong port), count"
scalar mobilityDrones.drones[0].udp droppedPkBadChecksum:count 0
attr interpolationmode none
attr source packetDropReasonIsIncorrectlyReceived(packetDropped)
attr title "packets dropped (checksum error), count"
scalar mobilityDrones.drones[0].app[0] "packets sent" 374
scalar mobilityDrones.drones[0].app[0] "packets received" 0
scalar mobilityDrones.drones[0].app[0] packetReceived:count 21
attr interpolationmode none
attr source packetReceived
attr title "packets received, count"
scalar mobilityDrones.drones[0].app[0] packetReceived:sum(packetBytes) 294
attr interpolationmode none
attr source packetReceived
attr title "packets received, sum(packetBytes)"
statistic mobilityDrones.drones[0].app[0] rcvdPkLifetime:stats
field count 21
field mean 0.085520381502286
field stddev 0.26574079824501
field min 5.4363718e-005
field max 1.001209040913
field sum 1.795928011548
field sqrsum 1.5659518857361
attr interpolationmode none
attr source dataAge(packetReceived)
attr title "received packet lifetime, stats"
attr unit s
scalar mobilityDrones.drones[0].app[0] packetSent:count 374
attr interpolationmode none
attr source packetSent
attr title "packets sent, count"
scalar mobilityDrones.drones[0].app[0] packetSent:sum(packetBytes) 5236
attr interpolationmode none
attr source packetSent
attr title "packets sent, sum(packetBytes)"
scalar mobilityDrones.drones[1].lo[0].lo rcvdPkFromHl:count 249
attr interpolationmode none
attr source packetReceivedFromUpper
attr title "packets received from higher layer, count"
scalar mobilityDrones.drones[1].lo[0].lo rcvdPkFromHl:sum(packetBytes) 10458
attr interpolationmode none
attr source packetReceivedFromUpper
attr title "packets received from higher layer, sum(packetBytes)"
scalar mobilityDrones.drones[1].lo[0].lo passedUpPk:count 249
attr interpolationmode none
attr source packetSentToUpper
attr title "packets passed to higher layer, count"
scalar mobilityDrones.drones[1].lo[0].lo passedUpPk:sum(packetBytes) 10458
attr interpolationmode none
attr source packetSentToUpper
attr title "packets passed to higher layer, sum(packetBytes)"
scalar mobilityDrones.drones[1].wlan[0].mac.dcf.channelAccess.pendingQueue packetPopped:count 349
attr interpolationmode none
attr title "packet popped, count"
scalar mobilityDrones.drones[1].wlan[0].mac.dcf.channelAccess.pendingQueue packetPopped:sum(packetBytes) 27054
attr interpolationmode none
attr title "packet popped, sum(packetBytes)"
statistic mobilityDrones.drones[1].wlan[0].mac.dcf.channelAccess.pendingQueue queueingTime:histogram
field count 349
field mean 0.00030787014034957
field stddev 0.0017645191699986
field min 0
field max 0.01661
field sum 0.107446678982
field sqrsum 0.0011165873337881
attr interpolationmode none
attr source queueingTime(packetPopped)
attr title "queueing times, histogram"
attr unit s
bin	-inf	0
bin	-0.5	0
bin	-0.48	0
bin	-0.46	0
bin	-0.44	0
bin	-0.42	0
bin	-0.4	0
bin	-0.38	0
bin	-0.36	0
bin	-0.34	0
bin	-0.32	0
bin	-0.3	0
bin	-0.28	0
bin	-0.26	0
bin	-0.24	0
bin	-0.22	0
bin	-0.2	0
bin	-0.18	0
bin	-0.16	0
bin	-0.14	0
bin	-0.12	0
bin	-0.1	0
bin	-0.08	0
bin	-0.06	0
bin	-0.04	0
bin	-0.02	0
bin	0	349
bin	0.02	0
bin	0.04	0
bin	0.06	0
bin	0.08	0
bin	0.1	0
bin	0.12	0
bin	0.14	0
bin	0.16	0
bin	0.18	0
bin	0.2	0
bin	0.22	0
bin	0.24	0
bin	0.26	0
bin	0.28	0
bin	0.3	0
bin	0.32	0
bin	0.34	0
bin	0.36	0
bin	0.38	0
bin	0.4	0
bin	0.42	0
bin	0.44	0
bin	0.46	0
bin	0.48	0
bin	0.5	0
scalar mobilityDrones.drones[1].wlan[0].mac.dcf.channelAccess.pendingQueue queueLength:max 3
attr interpolationmode sample-hold
attr source "count(packetPushed) - count(packetPopped) - count(packetRemoved) - count(packetDropped)"
attr title "queue length, max"
scalar mobilityDrones.drones[1].wlan[0].mac.dcf.channelAccess.pendingQueue queueLength:timeavg 0.00033150652820074
attr interpolationmode sample-hold
attr source "count(packetPushed) - count(packetPopped) - count(packetRemoved) - count(packetDropped)"
attr title "queue length, timeavg"
scalar mobilityDrones.drones[1].wlan[0].mac.dcf.channelAccess.pendingQueue packetPushed:count 349
attr interpolationmode none
attr title "packet pushed, count"
scalar mobilityDrones.drones[1].wlan[0].mac.dcf.channelAccess.pendingQueue packetPushed:sum(packetBytes) 27054
attr interpolationmode none
attr title "packet pushed, sum(packetBytes)"
scalar mobilityDrones.drones[1].wlan[0].mac.dcf.channelAccess.pendingQueue packetDropQueueOverflow:count 0
attr interpolationmode none
attr source packetDropReasonIsQueueOverflow(packetDropped)
attr title "packet drops: queue overflow, count"
scalar mobilityDrones.drones[1].wlan[0].mac.dcf.channelAccess.pendingQueue packetDropQueueOverflow:sum(packetBytes) 0
attr interpolationmode none
attr source packetDropReasonIsQueueOverflow(packetDropped)
attr title "packet drops: queue overflow, sum(packetBytes)"
scalar mobilityDrones.drones[1].wlan[0].mac.dcf.channelAccess.pendingQueue packetRemoved:count 0
attr interpolationmode none
attr title "packets removed, count"
scalar mobilityDrones.drones[1].wlan[0].mac.dcf.channelAccess.pendingQueue packetRemoved:sum(packetBytes) 0
attr interpolationmode none
attr title "packets removed, sum(packetBytes)"
statistic mobilityDrones.drones[1].wlan[0].mac.dcf.channelAccess.inProgressFrames queueingTime:histogram
field count 349
field mean 0.0071755833245272
field stddev 0.01821637387443
field min 5e-005
field max 0.094937
field sum 2.50427858026
field sqrsum 0.13344868406278
attr interpolationmode none
attr source queueingTime(packetDequeued)
attr title "queueing times, histogram"
bin	-inf	0
bin	0	293
bin	0.01	9
bin	0.02	9
bin	0.03	8
bin	0.04	9
bin	0.05	7
bin	0.06	6
bin	0.07	5
bin	0.08	2
bin	0.09	1
bin	0.1	0
bin	0.11	0
bin	0.12	0
bin	0.13	0
bin	0.14	0
bin	0.15	0
bin	0.16	0
bin	0.17	0
bin	0.18	0
bin	0.19	0
bin	0.2	0
bin	0.21	0
bin	0.22	0
bin	0.23	0
bin	0.24	0
bin	0.25	0
bin	0.26	0
bin	0.27	0
bin	0.28	0
bin	0.29	0
bin	0.3	0
bin	0.31	0
bin	0.32	0
bin	0.33	0
bin	0.34	0
bin	0.35	0
bin	0.36	0
bin	0.37	0
bin	0.38	0
bin	0.39	0
bin	0.4	0
bin	0.41	0
bin	0.42	0
bin	0.43	0
bin	0.44	0
bin	0.45	0
bin	0.46	0
bin	0.47	0
bin	0.48	0
bin	0.49	0
bin	0.5	0
bin	0.51	0
scalar mobilityDrones.drones[1].wlan[0].mac.dcf.channelAccess.inProgressFrames queueLength:max 2
attr interpolationmode sample-hold
attr source "count(packetEnqueued) - count(packetDequeued)"
attr title "queue length, max"
scalar mobilityDrones.drones[1].wlan[0].mac.dcf.channelAccess.inProgressFrames queueLength:timeavg 0.0077264807591545
attr interpolationmode sample-hold
attr source "count(packetEnqueued) - count(packetDequeued)"
attr title "queue length, timeavg"
scalar mobilityDrones.drones[1].wlan[0].mac.dcf.channelAccess.contention stateChanged:count 6520
attr interpolationmode none
attr title "contention state changed, count"
scalar mobilityDrones.drones[1].wlan[0].mac.dcf.channelAccess.contention channelAccessGranted:count 697
attr title "channel access granted, count"
scalar mobilityDrones.drones[1].wlan[0].mac.dcf.channelAccess channelOwnershipChanged:count 1394
attr interpolationmode sample-hold
attr title "channel ownership, count"
scalar mobilityDrones.drones[1].wlan[0].mac.dcf.originatorMacDataService packetAggregated:count 0
attr title "packets aggregated, count"
scalar mobilityDrones.drones[1].wlan[0].mac.dcf.originatorMacDataService packetFragmented:count 0
attr title "packets fragmented, count"
scalar mobilityDrones.drones[1].wlan[0].mac.dcf.recipientMacDataService packetDropDuplicateDetected:count 0
attr interpolationmode none
attr source packetDropReasonIsDuplicateDetected(packetDropped)
attr title "packet drops: duplicate detected, count"
scalar mobilityDrones.drones[1].wlan[0].mac.dcf.recipientMacDataService packetDropDuplicateDetected:sum(packetBytes) 0
attr interpolationmode none
attr source packetDropReasonIsDuplicateDetected(packetDropped)
attr title "packet drops: duplicate detected, sum(packetBytes)"
scalar mobilityDrones.drones[1].wlan[0].mac.dcf.recipientMacDataService packetDeaggregated:count 0
attr title "packets deaggregated, count"
scalar mobilityDrones.drones[1].wlan[0].mac.dcf.recipientMacDataService packetDefragmented:count 96
attr title "packets defragmented, count"
scalar mobilityDrones.drones[1].wlan[0].mac.dcf.recoveryProcedure retryLimitReached:count 55
attr title "retry limit reached, count"
scalar mobilityDrones.drones[1].wlan[0].mac.dcf packetReceivedFromPeer:count 133
attr interpolationmode none
attr title "packets received, count"
scalar mobilityDrones.drones[1].wlan[0].mac.dcf packetReceivedFromPeer:sum(packetBytes) 7488
attr interpolationmode none
attr title "packets received, sum(packetBytes)"
scalar mobilityDrones.drones[1].wlan[0].mac.dcf packetReceivedFromPeerUnicast:count 72
attr interpolationmode none
attr source ieee80211Unicast(packetReceivedFromPeer)
attr title "packets received: unicast, count"
scalar mobilityDrones.drones[1].wlan[0].mac.dcf packetReceivedFromPeerUnicast:sum(packetBytes) 3234
attr interpolationmode none
attr source ieee80211Unicast(packetReceivedFromPeer)
attr title "packets received: unicast, sum(packetBytes)"
scalar mobilityDrones.drones[1].wlan[0].mac.dcf packetReceivedFromPeerMulticast:count 61
attr interpolationmode none
attr source ieee80211Multicast(packetReceivedFromPeer)
attr title "packets received: multicast, count"
scalar mobilityDrones.drones[1].wlan[0].mac.dcf packetReceivedFromPeerMulticast:sum(packetBytes) 4254
attr interpolationmode none
attr source ieee80211Multicast(packetReceivedFromPeer)
attr title "packets received: multicast, sum(packetBytes)"
scalar mobilityDrones.drones[1].wlan[0].mac.dcf packetReceivedFromPeerBroadcast:count 36
attr interpolationmode none
attr source ieee80211Broadcast(packetReceivedFromPeer)
attr title "packets received: broadcast, count"
scalar mobilityDrones.drones[1].wlan[0].mac.dcf packetReceivedFromPeerBroadcast:sum(packetBytes) 2304
attr interpolationmode none
attr source ieee80211Broadcast(packetReceivedFromPeer)
attr title "packets received: broadcast, sum(packetBytes)"
scalar mobilityDrones.drones[1].wlan[0].mac.dcf packetReceivedFromPeerWithRetry:count 3
attr interpolationmode none
attr source ieee80211Retry(packetReceivedFromPeer)
attr title "packets received: with retry, count"
scalar mobilityDrones.drones[1].wlan[0].mac.dcf packetReceivedFromPeerWithRetry:sum(packetBytes) 234
attr interpolationmode none
attr source ieee80211Retry(packetReceivedFromPeer)
attr title "packets received: with retry, sum(packetBytes)"
scalar mobilityDrones.drones[1].wlan[0].mac.dcf packetReceivedFromPeerWithoutRetry:count 130
attr interpolationmode none
attr source ieee80211NotRetry(packetReceivedFromPeer)
attr title "packets received: without retry, count"
scalar mobilityDrones.drones[1].wlan[0].mac.dcf packetReceivedFromPeerWithoutRetry:sum(packetBytes) 7254
attr interpolationmode none
attr source ieee80211NotRetry(packetReceivedFromPeer)
attr title "packets received: without retry, sum(packetBytes)"
scalar mobilityDrones.drones[1].wlan[0].mac.dcf packetSentToPeer:count 732
attr interpolationmode none
attr title "packets sent, count"
scalar mobilityDrones.drones[1].wlan[0].mac.dcf packetSentToPeer:sum(packetBytes) 54674
attr interpolationmode none
attr title "packets sent, sum(packetBytes)"
scalar mobilityDrones.drones[1].wlan[0].mac.dcf packetSentToPeerUnicast:count 475
attr interpolationmode none
attr source ieee80211Unicast(packetSentToPeer)
attr title "packets sent: unicast, count"
scalar mobilityDrones.drones[1].wlan[0].mac.dcf packetSentToPeerUnicast:sum(packetBytes) 34740
attr interpolationmode none
attr source ieee80211Unicast(packetSentToPeer)
attr title "packets sent: unicast, sum(packetBytes)"
scalar mobilityDrones.drones[1].wlan[0].mac.dcf packetSentToPeerMulticast:count 257
attr interpolationmode none
attr source ieee80211Multicast(packetSentToPeer)
attr title "packets sent: multicast, count"
scalar mobilityDrones.drones[1].wlan[0].mac.dcf packetSentToPeerMulticast:sum(packetBytes) 19934
attr interpolationmode none
attr source ieee80211Multicast(packetSentToPeer)
attr title "packets sent: multicast, sum(packetBytes)"
scalar mobilityDrones.drones[1].wlan[0].mac.dcf packetSentToPeerBroadcast:count 8
attr interpolationmode none
attr source ieee80211Broadcast(packetSentToPeer)
attr title "packets sent: broadcast , count"
scalar mobilityDrones.drones[1].wlan[0].mac.dcf packetSentToPeerBroadcast:sum(packetBytes) 512
attr interpolationmode none
attr source ieee80211Broadcast(packetSentToPeer)
attr title "packets sent: broadcast , sum(packetBytes)"
scalar mobilityDrones.drones[1].wlan[0].mac.dcf packetSentToPeerWithRetry:count 348
attr interpolationmode none
attr source ieee80211Retry(packetSentToPeer)
attr title "packets sent: with retry, count"
scalar mobilityDrones.drones[1].wlan[0].mac.dcf packetSentToPeerWithRetry:sum(packetBytes) 27130
attr interpolationmode none
attr source ieee80211Retry(packetSentToPeer)
attr title "packets sent: with retry, sum(packetBytes)"
scalar mobilityDrones.drones[1].wlan[0].mac.dcf packetSentToPeerWithoutRetry:count 384
attr interpolationmode none
attr source ieee80211NotRetry(packetSentToPeer)
attr title "packets sent: without retry, count"
scalar mobilityDrones.drones[1].wlan[0].mac.dcf packetSentToPeerWithoutRetry:sum(packetBytes) 27544
attr interpolationmode none
attr source ieee80211NotRetry(packetSentToPeer)
attr title "packets sent: without retry, sum(packetBytes)"
scalar mobilityDrones.drones[1].wlan[0].mac.dcf packetDrop:count 66
attr interpolationmode none
attr source packetDropped
attr title "packet drops, count"
scalar mobilityDrones.drones[1].wlan[0].mac.dcf packetDrop:sum(packetBytes) 5148
attr interpolationmode none
attr source packetDropped
attr title "packet drops, sum(packetBytes)"
scalar mobilityDrones.drones[1].wlan[0].mac.dcf packetDropNotAddressedToUs:count 11
attr interpolationmode none
attr source packetDropReasonIsNotAddressedToUs(packetDropped)
attr title "packet drops: not addressed to us, count"
scalar mobilityDrones.drones[1].wlan[0].mac.dcf packetDropNotAddressedToUs:sum(packetBytes) 858
attr interpolationmode none
attr source packetDropReasonIsNotAddressedToUs(packetDropped)
attr title "packet drops: not addressed to us, sum(packetBytes)"
scalar mobilityDrones.drones[1].wlan[0].mac.dcf packetDropQueueOverflow:count 0
attr interpolationmode none
attr source packetDropReasonIsQueueOverflow(packetDropped)
attr title "packet drops: queue overflow, count"
scalar mobilityDrones.drones[1].wlan[0].mac.dcf packetDropQueueOverflow:sum(packetBytes) 0
attr interpolationmode none
attr source packetDropReasonIsQueueOverflow(packetDropped)
attr title "packet drops: queue overflow, sum(packetBytes)"
scalar mobilityDrones.drones[1].wlan[0].mac.dcf packetDropRetryLimitReached:count 55
attr interpolationmode none
attr source packetDropReasonIsRetryLimitReached(packetDropped)
attr title "packet drops: retry limit reached, count"
scalar mobilityDrones.drones[1].wlan[0].mac.dcf packetDropRetryLimitReached:sum(packetBytes) 4290
attr interpolationmode none
attr source packetDropReasonIsRetryLimitReached(packetDropped)
attr title "packet drops: retry limit reached, sum(packetBytes)"
scalar mobilityDrones.drones[1].wlan[0].mac.dcf linkBroken:count 55
attr interpolationmode none
attr title "link breaks, count"
scalar mobilityDrones.drones[1].wlan[0].mac.dcf frameSequenceFinished:count 697
attr title "finished frame sequences, count"
statistic mobilityDrones.drones[1].wlan[0].mac.dcf frameSequenceDuration:histogram
field count 697
field mean 8.8102574602582e-005
field stddev 2.628783506004e-005
field min 5e-005
field max 0.000109
field sum 0.061407494497999
field sqrsum 5.8911293545797e-006
attr source frameSequenceDuration(frameSequenceFinished)
attr title "frame sequence durations, histogram"
bin	-inf	0
bin	0	697
bin	0.01	0
bin	0.02	0
bin	0.03	0
bin	0.04	0
bin	0.05	0
bin	0.06	0
bin	0.07	0
bin	0.08	0
bin	0.09	0
bin	0.1	0
bin	0.11	0
bin	0.12	0
bin	0.13	0
bin	0.14	0
bin	0.15	0
bin	0.16	0
bin	0.17	0
bin	0.18	0
bin	0.19	0
bin	0.2	0
bin	0.21	0
bin	0.22	0
bin	0.23	0
bin	0.24	0
bin	0.25	0
bin	0.26	0
bin	0.27	0
bin	0.28	0
bin	0.29	0
bin	0.3	0
bin	0.31	0
bin	0.32	0
bin	0.33	0
bin	0.34	0
bin	0.35	0
bin	0.36	0
bin	0.37	0
bin	0.38	0
bin	0.39	0
bin	0.4	0
bin	0.41	0
bin	0.42	0
bin	0.43	0
bin	0.44	0
bin	0.45	0
bin	0.46	0
bin	0.47	0
bin	0.48	0
bin	0.49	0
bin	0.5	0
bin	0.51	0
statistic mobilityDrones.drones[1].wlan[0].mac.dcf frameSequenceNumPackets:histogram
field count 697
field mean 1.6312769010043
field stddev 0.48280514673098
field min 1
field max 2
field sum 1137
field sqrsum 2017
attr source frameSequenceNumPackets(frameSequenceFinished)
attr title "frame sequences: number of packets, histogram"
bin	-inf	0
bin	0	0
bin	1	257
bin	2	440
bin	3	0
scalar mobilityDrones.drones[1].wlan[0].mac packetReceivedFromLower:count 169
attr interpolationmode none
attr title "packets received from lower layer, count"
scalar mobilityDrones.drones[1].wlan[0].mac packetReceivedFromLower:sum(packetBytes) 10126
attr interpolationmode none
attr title "packets received from lower layer, sum(packetBytes)"
scalar mobilityDrones.drones[1].wlan[0].mac packetSentToLower:count 732
attr interpolationmode none
attr title "packets sent to lower layer, count"
scalar mobilityDrones.drones[1].wlan[0].mac packetSentToLower:sum(packetBytes) 54674
attr interpolationmode none
attr title "packets sent to lower layer, sum(packetBytes)"
scalar mobilityDrones.drones[1].wlan[0].mac packetReceivedFromUpper:count 349
attr interpolationmode none
attr title "packets received from upper layer, count"
scalar mobilityDrones.drones[1].wlan[0].mac packetReceivedFromUpper:sum(packetBytes) 17282
attr interpolationmode none
attr title "packets received from upper layer, sum(packetBytes)"
scalar mobilityDrones.drones[1].wlan[0].mac packetSentToUpper:count 96
attr interpolationmode none
attr title "packets sent to upper layer, count"
scalar mobilityDrones.drones[1].wlan[0].mac packetSentToUpper:sum(packetBytes) 4282
attr interpolationmode none
attr title "packets sent to upper layer, sum(packetBytes)"
scalar mobilityDrones.drones[1].wlan[0].mac packetDrop:count 91
attr interpolationmode none
attr source packetDropped
attr title "packet drops, count"
scalar mobilityDrones.drones[1].wlan[0].mac packetDrop:sum(packetBytes) 6928
attr interpolationmode none
attr source packetDropped
attr title "packet drops, sum(packetBytes)"
scalar mobilityDrones.drones[1].wlan[0].mac packetDropIncorrectlyReceived:count 25
attr interpolationmode none
attr source packetDropReasonIsIncorrectlyReceived(packetDropped)
attr title "packet drops: incorrectly received, count"
scalar mobilityDrones.drones[1].wlan[0].mac packetDropIncorrectlyReceived:sum(packetBytes) 1780
attr interpolationmode none
attr source packetDropReasonIsIncorrectlyReceived(packetDropped)
attr title "packet drops: incorrectly received, sum(packetBytes)"
scalar mobilityDrones.drones[1].wlan[0].mac packetDropNotAddressedToUs:count 11
attr interpolationmode none
attr source packetDropReasonIsNotAddressedToUs(packetDropped)
attr title "packet drops: not addressed to us, count"
scalar mobilityDrones.drones[1].wlan[0].mac packetDropNotAddressedToUs:sum(packetBytes) 858
attr interpolationmode none
attr source packetDropReasonIsNotAddressedToUs(packetDropped)
attr title "packet drops: not addressed to us, sum(packetBytes)"
scalar mobilityDrones.drones[1].wlan[0].mac packetDropQueueOverflow:count 0
attr interpolationmode none
attr source packetDropReasonIsQueueOverflow(packetDropped)
attr title "packet drops: queue overflow, count"
scalar mobilityDrones.drones[1].wlan[0].mac packetDropQueueOverflow:sum(packetBytes) 0
attr interpolationmode none
attr source packetDropReasonIsQueueOverflow(packetDropped)
attr title "packet drops: queue overflow, sum(packetBytes)"
scalar mobilityDrones.drones[1].wlan[0].mac packetDropRetryLimitReached:count 55
attr interpolationmode none
attr source packetDropReasonIsRetryLimitReached(packetDropped)
attr title "packet drops: retry limit reached, count"
scalar mobilityDrones.drones[1].wlan[0].mac packetDropRetryLimitReached:sum(packetBytes) 4290
attr interpolationmode none
attr source packetDropReasonIsRetryLimitReached(packetDropped)
attr title "packet drops: retry limit reached, sum(packetBytes)"
scalar mobilityDrones.drones[1].wlan[0].mac packetDropDuplicateDetected:count 0
attr interpolationmode none
attr source packetDropReasonIsDuplicateDetected(packetDropped)
attr title "packet drops: duplicate detected, count"
scalar mobilityDrones.drones[1].wlan[0].mac packetDropDuplicateDetected:sum(packetBytes) 0
attr interpolationmode none
attr source packetDropReasonIsDuplicateDetected(packetDropped)
attr title "packet drops: duplicate detected, sum(packetBytes)"
scalar mobilityDrones.drones[1].wlan[0].mac packetDropOther:count 0
attr interpolationmode none
attr source packetDropReasonIsOther(packetDropped)
attr title "packet drops: other, count"
scalar mobilityDrones.drones[1].wlan[0].mac packetDropOther:sum(packetBytes) 0
attr interpolationmode none
attr source packetDropReasonIsOther(packetDropped)
attr title "packet drops: other, sum(packetBytes)"
scalar mobilityDrones.drones[1].wlan[0].mac linkBroken:count 55
attr interpolationmode none
attr title "link breaks, count"
statistic mobilityDrones.drones[1].wlan[0].radio minSnir:histogram
field count 169
field mean 542929765.66966
field stddev 7058081050.4114
field min 14.560827250447
field max 91755054109.427
field sum 91755130398.173
field sqrsum 8.4189899546278e+021
attr source minimumSnir(packetSentToUpper)
attr title "Min SNIR, histogram"
bin	-inf	0
bin	0	168
bin	2000000000	0
bin	4000000000	0
bin	6000000000	0
bin	8000000000	0
bin	10000000000	0
bin	12000000000	0
bin	14000000000	0
bin	16000000000	0
bin	18000000000	0
bin	20000000000	0
bin	22000000000	0
bin	24000000000	0
bin	26000000000	0
bin	28000000000	0
bin	30000000000	0
bin	32000000000	0
bin	34000000000	0
bin	36000000000	0
bin	38000000000	0
bin	40000000000	0
bin	42000000000	0
bin	44000000000	0
bin	46000000000	0
bin	48000000000	0
bin	50000000000	0
bin	52000000000	0
bin	54000000000	0
bin	56000000000	0
bin	58000000000	0
bin	60000000000	0
bin	62000000000	0
bin	64000000000	0
bin	66000000000	0
bin	68000000000	0
bin	70000000000	0
bin	72000000000	0
bin	74000000000	0
bin	76000000000	0
bin	78000000000	0
bin	80000000000	0
bin	82000000000	0
bin	84000000000	0
bin	86000000000	0
bin	88000000000	0
bin	90000000000	1
bin	92000000000	0
bin	94000000000	0
bin	96000000000	0
bin	98000000000	0
bin	100000000000	0
bin	102000000000	0
bin	104000000000	0
bin	106000000000	0
bin	108000000000	0
bin	110000000000	0
bin	112000000000	0
bin	114000000000	0
bin	116000000000	0
statistic mobilityDrones.drones[1].wlan[0].radio packetErrorRate:histogram
field count 169
field mean 0.17202108025363
field stddev 0.28156184706578
field min 0
field max 0.87419118803617
field sum 29.071562562863
field sqrsum 18.319469982204
attr source packetErrorRate(packetSentToUpper)
attr title "Packet error rate, histogram"
bin	-inf	0
bin	0	89
bin	0.02	10
bin	0.04	8
bin	0.06	7
bin	0.08	3
bin	0.1	4
bin	0.12	4
bin	0.14	0
bin	0.16	0
bin	0.18	0
bin	0.2	1
bin	0.22	1
bin	0.24	2
bin	0.26	2
bin	0.28	0
bin	0.3	2
bin	0.32	1
bin	0.34	1
bin	0.36	1
bin	0.38	2
bin	0.4	1
bin	0.42	1
bin	0.44	2
bin	0.46	1
bin	0.48	0
bin	0.5	0
bin	0.52	0
bin	0.54	1
bin	0.56	0
bin	0.58	1
bin	0.6	1
bin	0.62	0
bin	0.64	0
bin	0.66	1
bin	0.68	0
bin	0.7	0
bin	0.72	2
bin	0.74	6
bin	0.76	1
bin	0.78	1
bin	0.8	1
bin	0.82	1
bin	0.84	7
bin	0.86	3
bin	0.88	0
bin	0.9	0
bin	0.92	0
bin	0.94	0
bin	0.96	0
bin	0.98	0
bin	1	0
bin	1.02	0
bin	1.04	0
bin	1.06	0
bin	1.08	0
bin	1.1	0
statistic mobilityDrones.drones[1].wlan[0].radio bitErrorRate:histogram
field count 0
field mean nan
field stddev nan
field min nan
field max nan
field sum 0
field sqrsum 0
attr source bitErrorRate(packetSentToUpper)
attr title "Bit error rate, histogram"
bin	-inf	0
bin	0	0
bin	1	0
statistic mobilityDrones.drones[1].wlan[0].radio symbolErrorRate:histogram
field count 0
field mean nan
field stddev nan
field min nan
field max nan
field sum 0
field sqrsum 0
attr source symbolErrorRate(packetSentToUpper)
attr title "Symbol error rate, histogram"
bin	-inf	0
bin	0	0
bin	1	0
scalar mobilityDrones.drones[1].wlan[0].radio transmissionState:count 2928
attr interpolationmode sample-hold
attr source transmissionStateChanged
attr title "Radio transmission state, count"
scalar mobilityDrones.drones[1].wlan[0].radio receptionState:count 1897
attr interpolationmode sample-hold
attr source receptionStateChanged
attr title "Radio reception state, count"
scalar mobilityDrones.drones[1].wlan[0].radio radioMode:count 1467
attr interpolationmode sample-hold
attr source radioModeChanged
attr title "Radio mode, count"
statistic mobilityDrones.drones[1].wlan[0].radio radioChannel:histogram
field count 1
field mean 0
field stddev nan
field min 0
field max 0
field sum 0
field sqrsum 0
attr interpolationmode sample-hold
attr source radioChannelChanged
attr title "Radio channel, histogram"
bin	-inf	0
bin	-0.5	0
bin	-0.48	0
bin	-0.46	0
bin	-0.44	0
bin	-0.42	0
bin	-0.4	0
bin	-0.38	0
bin	-0.36	0
bin	-0.34	0
bin	-0.32	0
bin	-0.3	0
bin	-0.28	0
bin	-0.26	0
bin	-0.24	0
bin	-0.22	0
bin	-0.2	0
bin	-0.18	0
bin	-0.16	0
bin	-0.14	0
bin	-0.12	0
bin	-0.1	0
bin	-0.08	0
bin	-0.06	0
bin	-0.04	0
bin	-0.02	0
bin	0	1
bin	0.02	0
bin	0.04	0
bin	0.06	0
bin	0.08	0
bin	0.1	0
bin	0.12	0
bin	0.14	0
bin	0.16	0
bin	0.18	0
bin	0.2	0
bin	0.22	0
bin	0.24	0
bin	0.26	0
bin	0.28	0
bin	0.3	0
bin	0.32	0
bin	0.34	0
bin	0.36	0
bin	0.38	0
bin	0.4	0
bin	0.42	0
bin	0.44	0
bin	0.46	0
bin	0.48	0
bin	0.5	0
scalar mobilityDrones.drones[1].ipv4.ip packetDropAddressResolutionFailed:count 4
attr interpolationmode none
attr source packetDropReasonIsAddressResolutionFailed(packetDropped)
attr title "packet drop: address resolution failed, count"
scalar mobilityDrones.drones[1].ipv4.ip packetDropAddressResolutionFailed:sum(packetBytes) 168
attr interpolationmode none
attr source packetDropReasonIsAddressResolutionFailed(packetDropped)
attr title "packet drop: address resolution failed, sum(packetBytes)"
scalar mobilityDrones.drones[1].ipv4.ip packetDropHopLimitReached:count 0
attr interpolationmode none
attr source packetDropReasonIsHopLimitReached(packetDropped)
attr title "packet drop: hop limit reached, count"
scalar mobilityDrones.drones[1].ipv4.ip packetDropHopLimitReached:sum(packetBytes) 0
attr interpolationmode none
attr source packetDropReasonIsHopLimitReached(packetDropped)
attr title "packet drop: hop limit reached, sum(packetBytes)"
scalar mobilityDrones.drones[1].ipv4.ip packetDropForwardingDisabled:count 0
attr interpolationmode none
attr source packetDropReasonIsForwardingDisabled(packetDropped)
attr title "packet drop: forwarding disabled, count"
scalar mobilityDrones.drones[1].ipv4.ip packetDropForwardingDisabled:sum(packetBytes) 0
attr interpolationmode none
attr source packetDropReasonIsForwardingDisabled(packetDropped)
attr title "packet drop: forwarding disabled, sum(packetBytes)"
scalar mobilityDrones.drones[1].ipv4.ip packetDropNoInterfaceFound:count 0
attr interpolationmode none
attr source packetDropReasonIsNoInterfaceFound(packetDropped)
attr title "packet drop: no interface found, count"
scalar mobilityDrones.drones[1].ipv4.ip packetDropNoInterfaceFound:sum(packetBytes) 0
attr interpolationmode none
attr source packetDropReasonIsNoInterfaceFound(packetDropped)
attr title "packet drop: no interface found, sum(packetBytes)"
scalar mobilityDrones.drones[1].ipv4.ip packetDropNoRouteFound:count 0
attr interpolationmode none
attr source packetDropReasonIsNoRouteFound(packetDropped)
attr title "packet drop: no route found, count"
scalar mobilityDrones.drones[1].ipv4.ip packetDropNoRouteFound:sum(packetBytes) 0
attr interpolationmode none
attr source packetDropReasonIsNoRouteFound(packetDropped)
attr title "packet drop: no route found, sum(packetBytes)"
scalar mobilityDrones.drones[1].ipv4.ip packetDropUndefined:count 0
attr interpolationmode none
attr source packetDropReasonIsUndefined(packetDropped)
attr title "packet drop: undefined, count"
scalar mobilityDrones.drones[1].ipv4.ip packetDropUndefined:sum(packetBytes) 0
attr interpolationmode none
attr source packetDropReasonIsUndefined(packetDropped)
attr title "packet drop: undefined, sum(packetBytes)"
scalar mobilityDrones.drones[1].ipv4.arp arpReplySent:count 4
attr source arpReplySent
attr title "ARP replies sent, count"
scalar mobilityDrones.drones[1].ipv4.arp arpReplySent:sum(packetBytes) 112
attr source arpReplySent
attr title "ARP replies sent, sum(packetBytes)"
scalar mobilityDrones.drones[1].ipv4.arp arpRequestSent:count 8
attr source arpRequestSent
attr title "ARP request sent, count"
scalar mobilityDrones.drones[1].ipv4.arp arpRequestSent:sum(packetBytes) 224
attr source arpRequestSent
attr title "ARP request sent, sum(packetBytes)"
scalar mobilityDrones.drones[1].ipv4.arp arpResolutionFailed:count 2
attr title "ARP failed resolutions, count"
scalar mobilityDrones.drones[1].ipv4.arp arpResolutionCompleted:count 33
attr title "ARP completed resolutions, count"
scalar mobilityDrones.drones[1].ipv4.arp arpResolutionInitiated:count 3
attr title "ARP initiated resolutions, count"
scalar mobilityDrones.drones[1].udp packetReceived:count 291
attr interpolationmode none
attr source packetReceived
attr title "packets received, count"
scalar mobilityDrones.drones[1].udp packetReceived:sum(packetBytes) 6402
attr interpolationmode none
attr source packetReceived
attr title "packets received, sum(packetBytes)"
scalar mobilityDrones.drones[1].udp packetSent:count 341
attr interpolationmode none
attr source packetSent
attr title "packets sent, count"
scalar mobilityDrones.drones[1].udp packetSent:sum(packetBytes) 7502
attr interpolationmode none
attr source packetSent
attr title "packets sent, sum(packetBytes)"
scalar mobilityDrones.drones[1].udp passedUpPk:count 291
attr interpolationmode none
attr source packetSentToUpper
attr title "packets passed up, count"
scalar mobilityDrones.drones[1].udp droppedPkWrongPort:count 0
attr interpolationmode none
attr source packetDropReasonIsNoPortFound(packetDropped)
attr title "packets dropped (wrong port), count"
scalar mobilityDrones.drones[1].udp droppedPkBadChecksum:count 0
attr interpolationmode none
attr source packetDropReasonIsIncorrectlyReceived(packetDropped)
attr title "packets dropped (checksum error), count"
scalar mobilityDrones.drones[1].app[0] "packets sent" 341
scalar mobilityDrones.drones[1].app[0] "packets received" 0
scalar mobilityDrones.drones[1].app[0] packetReceived:count 39
attr interpolationmode none
attr source packetReceived
attr title "packets received, count"
scalar mobilityDrones.drones[1].app[0] packetReceived:sum(packetBytes) 546
attr interpolationmode none
attr source packetReceived
attr title "packets received, sum(packetBytes)"
statistic mobilityDrones.drones[1].app[0] rcvdPkLifetime:stats
field count 39
field mean 0.004517372001359
field stddev 0.0084441756163343
field min 5.4301171e-005
field max 0.033832404454
field sum 0.176177508053
field sqrsum 0.0035054152120486
attr interpolationmode none
attr source dataAge(packetReceived)
attr title "received packet lifetime, stats"
attr unit s
scalar mobilityDrones.drones[1].app[0] packetSent:count 341
attr interpolationmode none
attr source packetSent
attr title "packets sent, count"
scalar mobilityDrones.drones[1].app[0] packetSent:sum(packetBytes) 4774
attr interpolationmode none
attr source packetSent
attr title "packets sent, sum(packetBytes)"
scalar mobilityDrones.drones[2].lo[0].lo rcvdPkFromHl:count 218
attr interpolationmode none
attr source packetReceivedFromUpper
attr title "packets received from higher layer, count"
scalar mobilityDrones.drones[2].lo[0].lo rcvdPkFromHl:sum(packetBytes) 9156
attr interpolationmode none
attr source packetReceivedFromUpper
attr title "packets received from higher layer, sum(packetBytes)"
scalar mobilityDrones.drones[2].lo[0].lo passedUpPk:count 218
attr interpolationmode none
attr source packetSentToUpper
attr title "packets passed to higher layer, count"
scalar mobilityDrones.drones[2].lo[0].lo passedUpPk:sum(packetBytes) 9156
attr interpolationmode none
attr source packetSentToUpper
attr title "packets passed to higher layer, sum(packetBytes)"
scalar mobilityDrones.drones[2].wlan[0].mac.dcf.channelAccess.pendingQueue packetPopped:count 302
attr interpolationmode none
attr title "packet popped, count"
scalar mobilityDrones.drones[2].wlan[0].mac.dcf.channelAccess.pendingQueue packetPopped:sum(packetBytes) 23374
attr interpolationmode none
attr title "packet popped, sum(packetBytes)"
statistic mobilityDrones.drones[2].wlan[0].mac.dcf.channelAccess.pendingQueue queueingTime:histogram
field count 302
field mean 0.00032298675496689
field stddev 0.0018266295359536
field min 0
field max 0.015374
field sum 0.097542
field sqrsum 0.001035813988
attr interpolationmode none
attr source queueingTime(packetPopped)
attr title "queueing times, histogram"
attr unit s
bin	-inf	0
bin	-0.5	0
bin	-0.48	0
bin	-0.46	0
bin	-0.44	0
bin	-0.42	0
bin	-0.4	0
bin	-0.38	0
bin	-0.36	0
bin	-0.34	0
bin	-0.32	0
bin	-0.3	0
bin	-0.28	0
bin	-0.26	0
bin	-0.24	0
bin	-0.22	0
bin	-0.2	0
bin	-0.18	0
bin	-0.16	0
bin	-0.14	0
bin	-0.12	0
bin	-0.1	0
bin	-0.08	0
bin	-0.06	0
bin	-0.04	0
bin	-0.02	0
bin	0	302
bin	0.02	0
bin	0.04	0
bin	0.06	0
bin	0.08	0
bin	0.1	0
bin	0.12	0
bin	0.14	0
bin	0.16	0
bin	0.18	0
bin	0.2	0
bin	0.22	0
bin	0.24	0
bin	0.26	0
bin	0.28	0
bin	0.3	0
bin	0.32	0
bin	0.34	0
bin	0.36	0
bin	0.38	0
bin	0.4	0
bin	0.42	0
bin	0.44	0
bin	0.46	0
bin	0.48	0
bin	0.5	0
scalar mobilityDrones.drones[2].wlan[0].mac.dcf.channelAccess.pendingQueue queueLength:max 2
attr interpolationmode sample-hold
attr source "count(packetPushed) - count(packetPopped) - count(packetRemoved) - count(packetDropped)"
attr title "queue length, max"
scalar mobilityDrones.drones[2].wlan[0].mac.dcf.channelAccess.pendingQueue queueLength:timeavg 0.00034502024378599
attr interpolationmode sample-hold
attr source "count(packetPushed) - count(packetPopped) - count(packetRemoved) - count(packetDropped)"
attr title "queue length, timeavg"
scalar mobilityDrones.drones[2].wlan[0].mac.dcf.channelAccess.pendingQueue packetPushed:count 302
attr interpolationmode none
attr title "packet pushed, count"
scalar mobilityDrones.drones[2].wlan[0].mac.dcf.channelAccess.pendingQueue packetPushed:sum(packetBytes) 23374
attr interpolationmode none
attr title "packet pushed, sum(packetBytes)"
scalar mobilityDrones.drones[2].wlan[0].mac.dcf.channelAccess.pendingQueue packetDropQueueOverflow:count 0
attr interpolationmode none
attr source packetDropReasonIsQueueOverflow(packetDropped)
attr title "packet drops: queue overflow, count"
scalar mobilityDrones.drones[2].wlan[0].mac.dcf.channelAccess.pendingQueue packetDropQueueOverflow:sum(packetBytes) 0
attr interpolationmode none
attr source packetDropReasonIsQueueOverflow(packetDropped)
attr title "packet drops: queue overflow, sum(packetBytes)"
scalar mobilityDrones.drones[2].wlan[0].mac.dcf.channelAccess.pendingQueue packetRemoved:count 0
attr interpolationmode none
attr title "packets removed, count"
scalar mobilityDrones.drones[2].wlan[0].mac.dcf.channelAccess.pendingQueue packetRemoved:sum(packetBytes) 0
attr interpolationmode none
attr title "packets removed, sum(packetBytes)"
statistic mobilityDrones.drones[2].wlan[0].mac.dcf.channelAccess.inProgressFrames queueingTime:histogram
field count 302
field mean 0.006271473941043
field stddev 0.01702756192888
field min 5e-005
field max 0.089277
field sum 1.893985130195
field sqrsum 0.099149375826541
attr interpolationmode none
attr source queueingTime(packetDequeued)
attr title "queueing times, histogram"
bin	-inf	0
bin	0	259
bin	0.01	4
bin	0.02	11
bin	0.03	6
bin	0.04	3
bin	0.05	7
bin	0.06	8
bin	0.07	3
bin	0.08	1
bin	0.09	0
bin	0.1	0
bin	0.11	0
bin	0.12	0
bin	0.13	0
bin	0.14	0
bin	0.15	0
bin	0.16	0
bin	0.17	0
bin	0.18	0
bin	0.19	0
bin	0.2	0
bin	0.21	0
bin	0.22	0
bin	0.23	0
bin	0.24	0
bin	0.25	0
bin	0.26	0
bin	0.27	0
bin	0.28	0
bin	0.29	0
bin	0.3	0
bin	0.31	0
bin	0.32	0
bin	0.33	0
bin	0.34	0
bin	0.35	0
bin	0.36	0
bin	0.37	0
bin	0.38	0
bin	0.39	0
bin	0.4	0
bin	0.41	0
bin	0.42	0
bin	0.43	0
bin	0.44	0
bin	0.45	0
bin	0.46	0
bin	0.47	0
bin	0.48	0
bin	0.49	0
bin	0.5	0
bin	0.51	0
scalar mobilityDrones.drones[2].wlan[0].mac.dcf.channelAccess.inProgressFrames queueLength:max 2
attr interpolationmode sample-hold
attr source "count(packetEnqueued) - count(packetDequeued)"
attr title "queue length, max"
scalar mobilityDrones.drones[2].wlan[0].mac.dcf.channelAccess.inProgressFrames queueLength:timeavg 0.0066993009303369
attr interpolationmode sample-hold
attr source "count(packetEnqueued) - count(packetDequeued)"
attr title "queue length, timeavg"
scalar mobilityDrones.drones[2].wlan[0].mac.dcf.channelAccess.contention stateChanged:count 5152
attr interpolationmode none
attr title "contention state changed, count"
scalar mobilityDrones.drones[2].wlan[0].mac.dcf.channelAccess.contention channelAccessGranted:count 556
attr title "channel access granted, count"
scalar mobilityDrones.drones[2].wlan[0].mac.dcf.channelAccess channelOwnershipChanged:count 1112
attr interpolationmode sample-hold
attr title "channel ownership, count"
scalar mobilityDrones.drones[2].wlan[0].mac.dcf.originatorMacDataService packetAggregated:count 0
attr title "packets aggregated, count"
scalar mobilityDrones.drones[2].wlan[0].mac.dcf.originatorMacDataService packetFragmented:count 0
attr title "packets fragmented, count"
scalar mobilityDrones.drones[2].wlan[0].mac.dcf.recipientMacDataService packetDropDuplicateDetected:count 3
attr interpolationmode none
attr source packetDropReasonIsDuplicateDetected(packetDropped)
attr title "packet drops: duplicate detected, count"
scalar mobilityDrones.drones[2].wlan[0].mac.dcf.recipientMacDataService packetDropDuplicateDetected:sum(packetBytes) 234
attr interpolationmode none
attr source packetDropReasonIsDuplicateDetected(packetDropped)
attr title "packet drops: duplicate detected, sum(packetBytes)"
scalar mobilityDrones.drones[2].wlan[0].mac.dcf.recipientMacDataService packetDeaggregated:count 0
attr title "packets deaggregated, count"
scalar mobilityDrones.drones[2].wlan[0].mac.dcf.recipientMacDataService packetDefragmented:count 81
attr title "packets defragmented, count"
scalar mobilityDrones.drones[2].wlan[0].mac.dcf.recoveryProcedure retryLimitReached:count 41
attr title "retry limit reached, count"
scalar mobilityDrones.drones[2].wlan[0].mac.dcf packetReceivedFromPeer:count 114
attr interpolationmode none
attr title "packets received, count"
scalar mobilityDrones.drones[2].wlan[0].mac.dcf packetReceivedFromPeer:sum(packetBytes) 6916
attr interpolationmode none
attr title "packets received, sum(packetBytes)"
scalar mobilityDrones.drones[2].wlan[0].mac.dcf packetReceivedFromPeerUnicast:count 67
attr interpolationmode none
attr source ieee80211Unicast(packetReceivedFromPeer)
attr title "packets received: unicast, count"
scalar mobilityDrones.drones[2].wlan[0].mac.dcf packetReceivedFromPeerUnicast:sum(packetBytes) 3250
attr interpolationmode none
attr source ieee80211Unicast(packetReceivedFromPeer)
attr title "packets received: unicast, sum(packetBytes)"
scalar mobilityDrones.drones[2].wlan[0].mac.dcf packetReceivedFromPeerMulticast:count 47
attr interpolationmode none
attr source ieee80211Multicast(packetReceivedFromPeer)
attr title "packets received: multicast, count"
scalar mobilityDrones.drones[2].wlan[0].mac.dcf packetReceivedFromPeerMulticast:sum(packetBytes) 3666
attr interpolationmode none
attr source ieee80211Multicast(packetReceivedFromPeer)
attr title "packets received: multicast, sum(packetBytes)"
scalar mobilityDrones.drones[2].wlan[0].mac.dcf packetReceivedFromPeerBroadcast:count 0
attr interpolationmode none
attr source ieee80211Broadcast(packetReceivedFromPeer)
attr title "packets received: broadcast, count"
scalar mobilityDrones.drones[2].wlan[0].mac.dcf packetReceivedFromPeerBroadcast:sum(packetBytes) 0
attr interpolationmode none
attr source ieee80211Broadcast(packetReceivedFromPeer)
attr title "packets received: broadcast, sum(packetBytes)"
scalar mobilityDrones.drones[2].wlan[0].mac.dcf packetReceivedFromPeerWithRetry:count 9
attr interpolationmode none
attr source ieee80211Retry(packetReceivedFromPeer)
attr title "packets received: with retry, count"
scalar mobilityDrones.drones[2].wlan[0].mac.dcf packetReceivedFromPeerWithRetry:sum(packetBytes) 688
attr interpolationmode none
attr source ieee80211Retry(packetReceivedFromPeer)
attr title "packets received: with retry, sum(packetBytes)"
scalar mobilityDrones.drones[2].wlan[0].mac.dcf packetReceivedFromPeerWithoutRetry:count 105
attr interpolationmode none
attr source ieee80211NotRetry(packetReceivedFromPeer)
attr title "packets received: without retry, count"
scalar mobilityDrones.drones[2].wlan[0].mac.dcf packetReceivedFromPeerWithoutRetry:sum(packetBytes) 6228
attr interpolationmode none
attr source ieee80211NotRetry(packetReceivedFromPeer)
attr title "packets received: without retry, sum(packetBytes)"
scalar mobilityDrones.drones[2].wlan[0].mac.dcf packetSentToPeer:count 593
attr interpolationmode none
attr title "packets sent, count"
scalar mobilityDrones.drones[2].wlan[0].mac.dcf packetSentToPeer:sum(packetBytes) 43704
attr interpolationmode none
attr title "packets sent, sum(packetBytes)"
scalar mobilityDrones.drones[2].wlan[0].mac.dcf packetSentToPeerUnicast:count 362
attr interpolationmode none
attr source ieee80211Unicast(packetSentToPeer)
attr title "packets sent: unicast, count"
scalar mobilityDrones.drones[2].wlan[0].mac.dcf packetSentToPeerUnicast:sum(packetBytes) 25868
attr interpolationmode none
attr source ieee80211Unicast(packetSentToPeer)
attr title "packets sent: unicast, sum(packetBytes)"
scalar mobilityDrones.drones[2].wlan[0].mac.dcf packetSentToPeerMulticast:count 231
attr interpolationmode none
attr source ieee80211Multicast(packetSentToPeer)
attr title "packets sent: multicast, count"
scalar mobilityDrones.drones[2].wlan[0].mac.dcf packetSentToPeerMulticast:sum(packetBytes) 17836
attr interpolationmode none
attr source ieee80211Multicast(packetSentToPeer)
attr title "packets sent: multicast, sum(packetBytes)"
scalar mobilityDrones.drones[2].wlan[0].mac.dcf packetSentToPeerBroadcast:count 13
attr interpolationmode none
attr source ieee80211Broadcast(packetSentToPeer)
attr title "packets sent: broadcast , count"
scalar mobilityDrones.drones[2].wlan[0].mac.dcf packetSentToPeerBroadcast:sum(packetBytes) 832
attr interpolationmode none
attr source ieee80211Broadcast(packetSentToPeer)
attr title "packets sent: broadcast , sum(packetBytes)"
scalar mobilityDrones.drones[2].wlan[0].mac.dcf packetSentToPeerWithRetry:count 254
attr interpolationmode none
attr source ieee80211Retry(packetSentToPeer)
attr title "packets sent: with retry, count"
scalar mobilityDrones.drones[2].wlan[0].mac.dcf packetSentToPeerWithRetry:sum(packetBytes) 19812
attr interpolationmode none
attr source ieee80211Retry(packetSentToPeer)
attr title "packets sent: with retry, sum(packetBytes)"
scalar mobilityDrones.drones[2].wlan[0].mac.dcf packetSentToPeerWithoutRetry:count 339
attr interpolationmode none
attr source ieee80211NotRetry(packetSentToPeer)
attr title "packets sent: without retry, count"
scalar mobilityDrones.drones[2].wlan[0].mac.dcf packetSentToPeerWithoutRetry:sum(packetBytes) 23892
attr interpolationmode none
attr source ieee80211NotRetry(packetSentToPeer)
attr title "packets sent: without retry, sum(packetBytes)"
scalar mobilityDrones.drones[2].wlan[0].mac.dcf packetDrop:count 51
attr interpolationmode none
attr source packetDropped
attr title "packet drops, count"
scalar mobilityDrones.drones[2].wlan[0].mac.dcf packetDrop:sum(packetBytes) 3914
attr interpolationmode none
attr source packetDropped
attr title "packet drops, sum(packetBytes)"
scalar mobilityDrones.drones[2].wlan[0].mac.dcf packetDropNotAddressedToUs:count 7
attr interpolationmode none
attr source packetDropReasonIsNotAddressedToUs(packetDropped)
attr title "packet drops: not addressed to us, count"
scalar mobilityDrones.drones[2].wlan[0].mac.dcf packetDropNotAddressedToUs:sum(packetBytes) 482
attr interpolationmode none
attr source packetDropReasonIsNotAddressedToUs(packetDropped)
attr title "packet drops: not addressed to us, sum(packetBytes)"
scalar mobilityDrones.drones[2].wlan[0].mac.dcf packetDropQueueOverflow:count 0
attr interpolationmode none
attr source packetDropReasonIsQueueOverflow(packetDropped)
attr title "packet drops: queue overflow, count"
scalar mobilityDrones.drones[2].wlan[0].mac.dcf packetDropQueueOverflow:sum(packetBytes) 0
attr interpolationmode none
attr source packetDropReasonIsQueueOverflow(packetDropped)
attr title "packet drops: queue overflow, sum(packetBytes)"
scalar mobilityDrones.drones[2].wlan[0].mac.dcf packetDropRetryLimitReached:count 41
attr interpolationmode none
attr source packetDropReasonIsRetryLimitReached(packetDropped)
attr title "packet drops: retry limit reached, count"
scalar mobilityDrones.drones[2].wlan[0].mac.dcf packetDropRetryLimitReached:sum(packetBytes) 3198
attr interpolationmode none
attr source packetDropReasonIsRetryLimitReached(packetDropped)
attr title "packet drops: retry limit reached, sum(packetBytes)"
scalar mobilityDrones.drones[2].wlan[0].mac.dcf linkBroken:count 41
attr interpolationmode none
attr title "link breaks, count"
scalar mobilityDrones.drones[2].wlan[0].mac.dcf frameSequenceFinished:count 556
attr title "finished frame sequences, count"
statistic mobilityDrones.drones[2].wlan[0].mac.dcf frameSequenceDuration:histogram
field count 556
field mean 8.550203272482e-005
field stddev 2.6875245165118e-005
field min 5e-005
[...]
attr title "packets received: without retry, sum(packetBytes)"
scalar mobilityDrones.sensor1.wlan[0].mac.dcf packetSentToPeer:count 238
attr interpolationmode none
attr title "packets sent, count"
scalar mobilityDrones.sensor1.wlan[0].mac.dcf packetSentToPeer:sum(packetBytes) 15804
attr interpolationmode none
attr title "packets sent, sum(packetBytes)"
scalar mobilityDrones.sensor1.wlan[0].mac.dcf packetSentToPeerUnicast:count 50
attr interpolationmode none
attr source ieee80211Unicast(packetSentToPeer)
attr title "packets sent: unicast, count"
scalar mobilityDrones.sensor1.wlan[0].mac.dcf packetSentToPeerUnicast:sum(packetBytes) 3772
attr interpolationmode none
attr source ieee80211Unicast(packetSentToPeer)
attr title "packets sent: unicast, sum(packetBytes)"
scalar mobilityDrones.sensor1.wlan[0].mac.dcf packetSentToPeerMulticast:count 188
attr interpolationmode none
attr source ieee80211Multicast(packetSentToPeer)
attr title "packets sent: multicast, count"
scalar mobilityDrones.sensor1.wlan[0].mac.dcf packetSentToPeerMulticast:sum(packetBytes) 12032
attr interpolationmode none
attr source ieee80211Multicast(packetSentToPeer)
attr title "packets sent: multicast, sum(packetBytes)"
scalar mobilityDrones.sensor1.wlan[0].mac.dcf packetSentToPeerBroadcast:count 188
attr interpolationmode none
attr source ieee80211Broadcast(packetSentToPeer)
attr title "packets sent: broadcast , count"
scalar mobilityDrones.sensor1.wlan[0].mac.dcf packetSentToPeerBroadcast:sum(packetBytes) 12032
attr interpolationmode none
attr source ieee80211Broadcast(packetSentToPeer)
attr title "packets sent: broadcast , sum(packetBytes)"
scalar mobilityDrones.sensor1.wlan[0].mac.dcf packetSentToPeerWithRetry:count 36
attr interpolationmode none
attr source ieee80211Retry(packetSentToPeer)
attr title "packets sent: with retry, count"
scalar mobilityDrones.sensor1.wlan[0].mac.dcf packetSentToPeerWithRetry:sum(packetBytes) 2808
attr interpolationmode none
attr source ieee80211Retry(packetSentToPeer)
attr title "packets sent: with retry, sum(packetBytes)"
scalar mobilityDrones.sensor1.wlan[0].mac.dcf packetSentToPeerWithoutRetry:count 202
attr interpolationmode none
attr source ieee80211NotRetry(packetSentToPeer)
attr title "packets sent: without retry, count"
scalar mobilityDrones.sensor1.wlan[0].mac.dcf packetSentToPeerWithoutRetry:sum(packetBytes) 12996
attr interpolationmode none
attr source ieee80211NotRetry(packetSentToPeer)
attr title "packets sent: without retry, sum(packetBytes)"
scalar mobilityDrones.sensor1.wlan[0].mac.dcf packetDrop:count 319
attr interpolationmode none
attr source packetDropped
attr title "packet drops, count"
scalar mobilityDrones.sensor1.wlan[0].mac.dcf packetDrop:sum(packetBytes) 23204
attr interpolationmode none
attr source packetDropped
attr title "packet drops, sum(packetBytes)"
scalar mobilityDrones.sensor1.wlan[0].mac.dcf packetDropNotAddressedToUs:count 313
attr interpolationmode none
attr source packetDropReasonIsNotAddressedToUs(packetDropped)
attr title "packet drops: not addressed to us, count"
scalar mobilityDrones.sensor1.wlan[0].mac.dcf packetDropNotAddressedToUs:sum(packetBytes) 22736
attr interpolationmode none
attr source packetDropReasonIsNotAddressedToUs(packetDropped)
attr title "packet drops: not addressed to us, sum(packetBytes)"
scalar mobilityDrones.sensor1.wlan[0].mac.dcf packetDropQueueOverflow:count 0
attr interpolationmode none
attr source packetDropReasonIsQueueOverflow(packetDropped)
attr title "packet drops: queue overflow, count"
scalar mobilityDrones.sensor1.wlan[0].mac.dcf packetDropQueueOverflow:sum(packetBytes) 0
attr interpolationmode none
attr source packetDropReasonIsQueueOverflow(packetDropped)
attr title "packet drops: queue overflow, sum(packetBytes)"
scalar mobilityDrones.sensor1.wlan[0].mac.dcf packetDropRetryLimitReached:count 6
attr interpolationmode none
attr source packetDropReasonIsRetryLimitReached(packetDropped)
attr title "packet drops: retry limit reached, count"
scalar mobilityDrones.sensor1.wlan[0].mac.dcf packetDropRetryLimitReached:sum(packetBytes) 468
attr interpolationmode none
attr source packetDropReasonIsRetryLimitReached(packetDropped)
attr title "packet drops: retry limit reached, sum(packetBytes)"
scalar mobilityDrones.sensor1.wlan[0].mac.dcf linkBroken:count 6
attr interpolationmode none
attr title "link breaks, count"
scalar mobilityDrones.sensor1.wlan[0].mac.dcf frameSequenceFinished:count 236
attr title "finished frame sequences, count"
statistic mobilityDrones.sensor1.wlan[0].mac.dcf frameSequenceDuration:histogram
field count 236
field mean 6.1737082661017e-005
field stddev 2.3328996276905e-005
field min 5e-005
field max 0.000109
field sum 0.014569951508
field sqrsum 1.027403186429e-006
attr source frameSequenceDuration(frameSequenceFinished)
attr title "frame sequence durations, histogram"
bin	-inf	0
bin	0	236
bin	0.01	0
bin	0.02	0
bin	0.03	0
bin	0.04	0
bin	0.05	0
bin	0.06	0
bin	0.07	0
bin	0.08	0
bin	0.09	0
bin	0.1	0
bin	0.11	0
bin	0.12	0
bin	0.13	0
bin	0.14	0
bin	0.15	0
bin	0.16	0
bin	0.17	0
bin	0.18	0
bin	0.19	0
bin	0.2	0
bin	0.21	0
bin	0.22	0
bin	0.23	0
bin	0.24	0
bin	0.25	0
bin	0.26	0
bin	0.27	0
bin	0.28	0
bin	0.29	0
bin	0.3	0
bin	0.31	0
bin	0.32	0
bin	0.33	0
bin	0.34	0
bin	0.35	0
bin	0.36	0
bin	0.37	0
bin	0.38	0
bin	0.39	0
bin	0.4	0
bin	0.41	0
bin	0.42	0
bin	0.43	0
bin	0.44	0
bin	0.45	0
bin	0.46	0
bin	0.47	0
bin	0.48	0
bin	0.49	0
bin	0.5	0
bin	0.51	0
statistic mobilityDrones.sensor1.wlan[0].mac.dcf frameSequenceNumPackets:histogram
field count 236
field mean 1.2033898305085
field stddev 0.40337558727169
field min 1
field max 2
field sum 284
field sqrsum 380
attr source frameSequenceNumPackets(frameSequenceFinished)
attr title "frame sequences: number of packets, histogram"
bin	-inf	0
bin	0	0
bin	1	188
bin	2	48
bin	3	0
scalar mobilityDrones.sensor1.wlan[0].mac packetReceivedFromLower:count 442
attr interpolationmode none
attr title "packets received from lower layer, count"
scalar mobilityDrones.sensor1.wlan[0].mac packetReceivedFromLower:sum(packetBytes) 32358
attr interpolationmode none
attr title "packets received from lower layer, sum(packetBytes)"
scalar mobilityDrones.sensor1.wlan[0].mac packetSentToLower:count 238
attr interpolationmode none
attr title "packets sent to lower layer, count"
scalar mobilityDrones.sensor1.wlan[0].mac packetSentToLower:sum(packetBytes) 15804
attr interpolationmode none
attr title "packets sent to lower layer, sum(packetBytes)"
scalar mobilityDrones.sensor1.wlan[0].mac packetReceivedFromUpper:count 200
attr interpolationmode none
attr title "packets received from upper layer, count"
scalar mobilityDrones.sensor1.wlan[0].mac packetReceivedFromUpper:sum(packetBytes) 7368
attr interpolationmode none
attr title "packets received from upper layer, sum(packetBytes)"
scalar mobilityDrones.sensor1.wlan[0].mac packetSentToUpper:count 100
attr interpolationmode none
attr title "packets sent to upper layer, count"
scalar mobilityDrones.sensor1.wlan[0].mac packetSentToUpper:sum(packetBytes) 4944
attr interpolationmode none
attr title "packets sent to upper layer, sum(packetBytes)"
scalar mobilityDrones.sensor1.wlan[0].mac packetDrop:count 342
attr interpolationmode none
attr source packetDropped
attr title "packet drops, count"
scalar mobilityDrones.sensor1.wlan[0].mac packetDrop:sum(packetBytes) 24998
attr interpolationmode none
attr source packetDropped
attr title "packet drops, sum(packetBytes)"
scalar mobilityDrones.sensor1.wlan[0].mac packetDropIncorrectlyReceived:count 23
attr interpolationmode none
attr source packetDropReasonIsIncorrectlyReceived(packetDropped)
attr title "packet drops: incorrectly received, count"
scalar mobilityDrones.sensor1.wlan[0].mac packetDropIncorrectlyReceived:sum(packetBytes) 1794
attr interpolationmode none
attr source packetDropReasonIsIncorrectlyReceived(packetDropped)
attr title "packet drops: incorrectly received, sum(packetBytes)"
scalar mobilityDrones.sensor1.wlan[0].mac packetDropNotAddressedToUs:count 313
attr interpolationmode none
attr source packetDropReasonIsNotAddressedToUs(packetDropped)
attr title "packet drops: not addressed to us, count"
scalar mobilityDrones.sensor1.wlan[0].mac packetDropNotAddressedToUs:sum(packetBytes) 22736
attr interpolationmode none
attr source packetDropReasonIsNotAddressedToUs(packetDropped)
attr title "packet drops: not addressed to us, sum(packetBytes)"
scalar mobilityDrones.sensor1.wlan[0].mac packetDropQueueOverflow:count 0
attr interpolationmode none
attr source packetDropReasonIsQueueOverflow(packetDropped)
attr title "packet drops: queue overflow, count"
scalar mobilityDrones.sensor1.wlan[0].mac packetDropQueueOverflow:sum(packetBytes) 0
attr interpolationmode none
attr source packetDropReasonIsQueueOverflow(packetDropped)
attr title "packet drops: queue overflow, sum(packetBytes)"
scalar mobilityDrones.sensor1.wlan[0].mac packetDropRetryLimitReached:count 6
attr interpolationmode none
attr source packetDropReasonIsRetryLimitReached(packetDropped)
attr title "packet drops: retry limit reached, count"
scalar mobilityDrones.sensor1.wlan[0].mac packetDropRetryLimitReached:sum(packetBytes) 468
attr interpolationmode none
attr source packetDropReasonIsRetryLimitReached(packetDropped)
attr title "packet drops: retry limit reached, sum(packetBytes)"
scalar mobilityDrones.sensor1.wlan[0].mac packetDropDuplicateDetected:count 0
attr interpolationmode none
attr source packetDropReasonIsDuplicateDetected(packetDropped)
attr title "packet drops: duplicate detected, count"
scalar mobilityDrones.sensor1.wlan[0].mac packetDropDuplicateDetected:sum(packetBytes) 0
attr interpolationmode none
attr source packetDropReasonIsDuplicateDetected(packetDropped)
attr title "packet drops: duplicate detected, sum(packetBytes)"
scalar mobilityDrones.sensor1.wlan[0].mac packetDropOther:count 0
attr interpolationmode none
attr source packetDropReasonIsOther(packetDropped)
attr title "packet drops: other, count"
scalar mobilityDrones.sensor1.wlan[0].mac packetDropOther:sum(packetBytes) 0
attr interpolationmode none
attr source packetDropReasonIsOther(packetDropped)
attr title "packet drops: other, sum(packetBytes)"
scalar mobilityDrones.sensor1.wlan[0].mac linkBroken:count 6
attr interpolationmode none
attr title "link breaks, count"
statistic mobilityDrones.sensor1.wlan[0].radio minSnir:histogram
field count 442
field mean 44.469176722798
field stddev 28.3510205602
field min 14.628400612771
field max 127.02888714702
field sum 19655.376111477
field sqrsum 1228525.5356153
attr source minimumSnir(packetSentToUpper)
attr title "Min SNIR, histogram"
bin	-inf	0
bin	0	0
bin	2	0
bin	4	0
bin	6	0
bin	8	0
bin	10	0
bin	12	0
bin	14	21
bin	16	50
bin	18	9
bin	20	37
bin	22	24
bin	24	3
bin	26	34
bin	28	18
bin	30	8
bin	32	13
bin	34	17
bin	36	4
bin	38	9
bin	40	17
bin	42	10
bin	44	10
bin	46	4
bin	48	10
bin	50	1
bin	52	21
bin	54	4
bin	56	2
bin	58	3
bin	60	6
bin	62	2
bin	64	0
bin	66	20
bin	68	2
bin	70	1
bin	72	1
bin	74	4
bin	76	7
bin	78	1
bin	80	7
bin	82	6
bin	84	9
bin	86	1
bin	88	1
bin	90	3
bin	92	6
bin	94	2
bin	96	1
bin	98	1
bin	100	0
bin	102	12
bin	104	2
bin	106	0
bin	108	4
bin	110	1
bin	112	3
bin	114	1
bin	116	2
bin	118	2
bin	120	3
bin	122	1
bin	124	0
bin	126	1
bin	128	0
bin	130	0
bin	132	0
bin	134	0
bin	136	0
bin	138	0
bin	140	0
bin	142	0
bin	144	0
bin	146	0
bin	148	0
statistic mobilityDrones.sensor1.wlan[0].radio packetErrorRate:histogram
field count 442
field mean 0.055145103455772
field stddev 0.14111387231724
field min 0
field max 0.85668373920894
field sum 24.374135727451
field sqrsum 10.125802343857
attr source packetErrorRate(packetSentToUpper)
attr title "Packet error rate, histogram"
bin	-inf	0
bin	0	355
bin	0.02	10
bin	0.04	2
bin	0.06	2
bin	0.08	3
bin	0.1	1
bin	0.12	5
bin	0.14	12
bin	0.16	4
bin	0.18	1
bin	0.2	0
bin	0.22	1
bin	0.24	1
bin	0.26	8
bin	0.28	9
bin	0.3	5
bin	0.32	0
bin	0.34	3
bin	0.36	0
bin	0.38	0
bin	0.4	0
bin	0.42	0
bin	0.44	4
bin	0.46	1
bin	0.48	2
bin	0.5	0
bin	0.52	0
bin	0.54	5
bin	0.56	2
bin	0.58	1
bin	0.6	0
bin	0.62	0
bin	0.64	0
bin	0.66	0
bin	0.68	0
bin	0.7	1
bin	0.72	0
bin	0.74	1
bin	0.76	0
bin	0.78	0
bin	0.8	0
bin	0.82	2
bin	0.84	1
bin	0.86	0
bin	0.88	0
bin	0.9	0
bin	0.92	0
bin	0.94	0
bin	0.96	0
bin	0.98	0
bin	1	0
bin	1.02	0
bin	1.04	0
bin	1.06	0
bin	1.08	0
statistic mobilityDrones.sensor1.wlan[0].radio bitErrorRate:histogram
field count 0
field mean nan
field stddev nan
field min nan
field max nan
field sum 0
field sqrsum 0
attr source bitErrorRate(packetSentToUpper)
attr title "Bit error rate, histogram"
bin	-inf	0
bin	0	0
bin	1	0
statistic mobilityDrones.sensor1.wlan[0].radio symbolErrorRate:histogram
field count 0
field mean nan
field stddev nan
field min nan
field max nan
field sum 0
field sqrsum 0
attr source symbolErrorRate(packetSentToUpper)
attr title "Symbol error rate, histogram"
bin	-inf	0
bin	0	0
bin	1	0
scalar mobilityDrones.sensor1.wlan[0].radio transmissionState:count 952
attr interpolationmode sample-hold
attr source transmissionStateChanged
attr title "Radio transmission state, count"
scalar mobilityDrones.sensor1.wlan[0].radio receptionState:count 1405
attr interpolationmode sample-hold
attr source receptionStateChanged
attr title "Radio reception state, count"
scalar mobilityDrones.sensor1.wlan[0].radio radioMode:count 479
attr interpolationmode sample-hold
attr source radioModeChanged
attr title "Radio mode, count"
statistic mobilityDrones.sensor1.wlan[0].radio radioChannel:histogram
field count 1
field mean 0
field stddev nan
field min 0
field max 0
field sum 0
field sqrsum 0
attr interpolationmode sample-hold
attr source radioChannelChanged
attr title "Radio channel, histogram"
bin	-inf	0
bin	-0.5	0
bin	-0.48	0
bin	-0.46	0
bin	-0.44	0
bin	-0.42	0
bin	-0.4	0
bin	-0.38	0
bin	-0.36	0
bin	-0.34	0
bin	-0.32	0
bin	-0.3	0
bin	-0.28	0
bin	-0.26	0
bin	-0.24	0
bin	-0.22	0
bin	-0.2	0
bin	-0.18	0
bin	-0.16	0
bin	-0.14	0
bin	-0.12	0
bin	-0.1	0
bin	-0.08	0
bin	-0.06	0
bin	-0.04	0
bin	-0.02	0
bin	0	1
bin	0.02	0
bin	0.04	0
bin	0.06	0
bin	0.08	0
bin	0.1	0
bin	0.12	0
bin	0.14	0
bin	0.16	0
bin	0.18	0
bin	0.2	0
bin	0.22	0
bin	0.24	0
bin	0.26	0
bin	0.28	0
bin	0.3	0
bin	0.32	0
bin	0.34	0
bin	0.36	0
bin	0.38	0
bin	0.4	0
bin	0.42	0
bin	0.44	0
bin	0.46	0
bin	0.48	0
bin	0.5	0
scalar mobilityDrones.sensor1.ipv4.ip packetDropAddressResolutionFailed:count 61
attr interpolationmode none
attr source packetDropReasonIsAddressResolutionFailed(packetDropped)
attr title "packet drop: address resolution failed, count"
scalar mobilityDrones.sensor1.ipv4.ip packetDropAddressResolutionFailed:sum(packetBytes) 2562
attr interpolationmode none
attr source packetDropReasonIsAddressResolutionFailed(packetDropped)
attr title "packet drop: address resolution failed, sum(packetBytes)"
scalar mobilityDrones.sensor1.ipv4.ip packetDropHopLimitReached:count 0
attr interpolationmode none
attr source packetDropReasonIsHopLimitReached(packetDropped)
attr title "packet drop: hop limit reached, count"
scalar mobilityDrones.sensor1.ipv4.ip packetDropHopLimitReached:sum(packetBytes) 0
attr interpolationmode none
attr source packetDropReasonIsHopLimitReached(packetDropped)
attr title "packet drop: hop limit reached, sum(packetBytes)"
scalar mobilityDrones.sensor1.ipv4.ip packetDropForwardingDisabled:count 0
attr interpolationmode none
attr source packetDropReasonIsForwardingDisabled(packetDropped)
attr title "packet drop: forwarding disabled, count"
scalar mobilityDrones.sensor1.ipv4.ip packetDropForwardingDisabled:sum(packetBytes) 0
attr interpolationmode none
attr source packetDropReasonIsForwardingDisabled(packetDropped)
attr title "packet drop: forwarding disabled, sum(packetBytes)"
scalar mobilityDrones.sensor1.ipv4.ip packetDropNoInterfaceFound:count 0
attr interpolationmode none
attr source packetDropReasonIsNoInterfaceFound(packetDropped)
attr title "packet drop: no interface found, count"
scalar mobilityDrones.sensor1.ipv4.ip packetDropNoInterfaceFound:sum(packetBytes) 0
attr interpolationmode none
attr source packetDropReasonIsNoInterfaceFound(packetDropped)
attr title "packet drop: no interface found, sum(packetBytes)"
scalar mobilityDrones.sensor1.ipv4.ip packetDropNoRouteFound:count 0
attr interpolationmode none
attr source packetDropReasonIsNoRouteFound(packetDropped)
attr title "packet drop: no route found, count"
scalar mobilityDrones.sensor1.ipv4.ip packetDropNoRouteFound:sum(packetBytes) 0
attr interpolationmode none
attr source packetDropReasonIsNoRouteFound(packetDropped)
attr title "packet drop: no route found, sum(packetBytes)"
scalar mobilityDrones.sensor1.ipv4.ip packetDropUndefined:count 0
attr interpolationmode none
attr source packetDropReasonIsUndefined(packetDropped)
attr title "packet drop: undefined, count"
scalar mobilityDrones.sensor1.ipv4.ip packetDropUndefined:sum(packetBytes) 0
attr interpolationmode none
attr source packetDropReasonIsUndefined(packetDropped)
attr title "packet drop: undefined, sum(packetBytes)"
scalar mobilityDrones.sensor1.ipv4.arp arpReplySent:count 0
attr source arpReplySent
attr title "ARP replies sent, count"
scalar mobilityDrones.sensor1.ipv4.arp arpReplySent:sum(packetBytes) 0
attr source arpReplySent
attr title "ARP replies sent, sum(packetBytes)"
scalar mobilityDrones.sensor1.ipv4.arp arpRequestSent:count 188
attr source arpRequestSent
attr title "ARP request sent, count"
scalar mobilityDrones.sensor1.ipv4.arp arpRequestSent:sum(packetBytes) 5264
attr source arpRequestSent
attr title "ARP request sent, sum(packetBytes)"
scalar mobilityDrones.sensor1.ipv4.arp arpResolutionFailed:count 61
attr title "ARP failed resolutions, count"
scalar mobilityDrones.sensor1.ipv4.arp arpResolutionCompleted:count 2
attr title "ARP completed resolutions, count"
scalar mobilityDrones.sensor1.ipv4.arp arpResolutionInitiated:count 63
attr title "ARP initiated resolutions, count"
scalar mobilityDrones.sensor1.udp packetReceived:count 0
attr interpolationmode none
attr source packetReceived
attr title "packets received, count"
scalar mobilityDrones.sensor1.udp packetReceived:sum(packetBytes) 0
attr interpolationmode none
attr source packetReceived
attr title "packets received, sum(packetBytes)"
scalar mobilityDrones.sensor1.udp packetSent:count 73
attr interpolationmode none
attr source packetSent
attr title "packets sent, count"
scalar mobilityDrones.sensor1.udp packetSent:sum(packetBytes) 1606
attr interpolationmode none
attr source packetSent
attr title "packets sent, sum(packetBytes)"
scalar mobilityDrones.sensor1.udp passedUpPk:count 0
attr interpolationmode none
attr source packetSentToUpper
attr title "packets passed up, count"
scalar mobilityDrones.sensor1.udp droppedPkWrongPort:count 0
attr interpolationmode none
attr source packetDropReasonIsNoPortFound(packetDropped)
attr title "packets dropped (wrong port), count"
scalar mobilityDrones.sensor1.udp droppedPkBadChecksum:count 0
attr interpolationmode none
attr source packetDropReasonIsIncorrectlyReceived(packetDropped)
attr title "packets dropped (checksum error), count"
scalar mobilityDrones.sensor1.app[0] "packets sent" 73
scalar mobilityDrones.sensor1.app[0] "packets received" 0
scalar mobilityDrones.sensor1.app[0] packetReceived:count 0
attr interpolationmode none
attr source packetReceived
attr title "packets received, count"
scalar mobilityDrones.sensor1.app[0] packetReceived:sum(packetBytes) 0
attr interpolationmode none
attr source packetReceived
attr title "packets received, sum(packetBytes)"
statistic mobilityDrones.sensor1.app[0] rcvdPkLifetime:stats
field count 0
field mean nan
field stddev nan
field min nan
field max nan
field sum 0
field sqrsum 0
attr interpolationmode none
attr source dataAge(packetReceived)
attr title "received packet lifetime, stats"
attr unit s
scalar mobilityDrones.sensor1.app[0] packetSent:count 73
attr interpolationmode none
attr source packetSent
attr title "packets sent, count"
scalar mobilityDrones.sensor1.app[0] packetSent:sum(packetBytes) 1022
attr interpolationmode none
attr source packetSent
attr title "packets sent, sum(packetBytes)"

