version 2
run Sim4drone-0-20210802-11:11:31-9164
attr configname Sim4drone
attr datetime 20210802-11:11:31
attr experiment Sim4drone
attr inifile mobilityDrones-omnetpp.ini
attr iterationvars ""
attr iterationvarsf ""
attr measurement ""
attr network mobilityDrones
attr processid 9164
attr repetition 0
attr replication #0
attr resultdir results
attr runnumber 0
attr seedset 0
param *.numUAVs 4
param *.quads[*].protocol.typename "\"ZigzagProtocol\""
param *.quads[0].app[0].destAddresses "\"quads[1] quads[2] quads[3] sensors[0] sensors[1] sensors[2] groundStation\""
param *.quads[1].app[0].destAddresses "\"quads[0] quads[2] quads[3] sensors[0] sensors[1] sensors[2] groundStation\""
param *.quads[2].app[0].destAddresses "\"quads[0] quads[1] quads[3] sensors[0] sensors[1] sensors[2] groundStation\""
param *.quads[3].app[0].destAddresses "\"quads[0] quads[1] quads[2] sensors[0] sensors[1] sensors[2] groundStation\""
param *.quads[*].mobility.waypointFile "\"paths/voo2.waypoints\""
param *.quads[*].app[*].timeoutDuration 5s
param *.quads[0].mobility.startTime 0s
param *.quads[1].mobility.startTime 40s
param *.quads[2].mobility.startTime 80s
param *.quads[3].mobility.startTime 110s
param *.quads[0].app[*].startTime "normal(1s, 1s)"
param *.quads[1].app[*].startTime "normal(40s, 1s)"
param *.quads[2].app[*].startTime "normal(80s, 1s)"
param *.quads[3].app[*].startTime "normal(110s, 1s)"
param *.numSensors 8
param *.sensors[*].numApps 1
param *.sensors[*].app[0].typename "\"UdpSensorCommunicationApp\""
param *.sensors[*].app[0].destAddresses "\"quads[0] quads[1] quads[2] quads[3]\""
param *.sensors[*].app[0].destPort 1000
param *.sensors[*].app[0].localPort 1000
param *.sensors[*].app[0].sendInterval 8s
param *.sensors[*].app[0].startTime exponential(1s)
param *.sensors[*].app[0].messageLength 1454Byte
param *.sensors[*].mobility.initialAltitude 0m
param *.sensors[0].mobility.initialLatitude -15.84245230deg
param *.sensors[0].mobility.initialLongitude -47.92948720deg
param *.sensors[1].mobility.initialLatitude -15.84262780deg
param *.sensors[1].mobility.initialLongitude -47.92650460deg
param *.sensors[2].mobility.initialLatitude -15.84161630deg
param *.sensors[2].mobility.initialLongitude -47.92395110deg
param *.sensors[3..7].app[0].typename "\"UdpSinkMobileSenserNode\""
param *.sensors[3].mobility.initialLatitude -15.8436264deg
param *.sensors[3].mobility.initialLongitude -47.9270250deg
param *.sensors[4].mobility.initialLatitude -15.8406461deg
param *.sensors[4].mobility.initialLongitude -47.9240263deg
param *.sensors[5].mobility.initialLatitude -15.8416370deg
param *.sensors[5].mobility.initialLongitude -47.9227066deg
param *.sensors[6].mobility.initialLatitude -15.8437115deg
param *.sensors[6].mobility.initialLongitude -47.9259145deg
param *.sensors[7].mobility.initialLatitude -15.8437425deg
param *.sensors[7].mobility.initialLongitude -47.9246378deg
param *.groundStation.protocol.typename "\"ZigzagProtocol\""
param *.groundStation.mobility.initialLatitude -15.840068deg
param *.groundStation.mobility.initialLongitude -47.926633deg
param *.groundStation.app[0].destAddresses "\"quads[0] quads[1] quads[2] quads[3]\""
param *.groundStation.app[0].startTime 130s
param *.visualizer.osgVisualizer.typename "\"IntegratedOsgVisualizer\""
param *.visualizer.osgVisualizer.sceneVisualizer.typename "\"SceneOsgEarthVisualizer\""
param *.visualizer.osgVisualizer.sceneVisualizer.mapFile "\"map.earth\""
param *.visualizer.osgVisualizer.sceneVisualizer.sceneImageSize 10000m
param *.visualizer.osgVisualizer.sceneVisualizer.axisLength 500m
param *.visualizer.osgVisualizer.sceneVisualizer.sceneMinX -200m
param *.visualizer.osgVisualizer.sceneVisualizer.sceneMinY -200m
param *.visualizer.osgVisualizer.sceneVisualizer.sceneMinZ 0m
param *.visualizer.osgVisualizer.sceneVisualizer.sceneMaxX 5000m
param *.visualizer.osgVisualizer.sceneVisualizer.sceneMaxY 5000m
param *.visualizer.osgVisualizer.sceneVisualizer.sceneMaxZ 5000m
param *.visualizer.osgVisualizer.networkNodeVisualizer.displayModuleName true
param *.visualizer.*.statisticVisualizer.signalName "\"dataLoad\""
param *.visualizer.*.statisticVisualizer.format "\"(%v)\""
param *.visualizer.*.statisticVisualizer.textColor "\"red\""
param *.visualizer.*.statisticVisualizer.font "\"Courier New, 12px, bold\""
param *.visualizer.*.statisticVisualizer.opacity 1
param *.visualizer.*.statisticVisualizer.sourceFilter "\"*.quads[*].** *.groundStation.**\""
param *.visualizer.*.mobilityVisualizer.displayMobility true
param *.visualizer.*.mobilityVisualizer.displayPositions true
param *.visualizer.*.mobilityVisualizer.displayOrientations true
param *.visualizer.*.mobilityVisualizer.displayVelocities true
param *.visualizer.*.mobilityVisualizer.displayMovementTrails true
param *.visualizer.*.mobilityVisualizer.animationSpeed 10
param *.visualizer.mediumVisualizer.displaySignals true
param **.constraintAreaMinX -5000m
param **.constraintAreaMinY -5000m
param **.constraintAreaMinZ -100m
param **.constraintAreaMaxX 5000m
param **.constraintAreaMaxY 5000m
param **.constraintAreaMaxZ 5000m
param *.quads.wlan[0].radio.displayCommunicationRange true
param *.coordinateSystem.sceneLongitude -47.926634deg
param *.coordinateSystem.sceneLatitude -15.840075deg
param *.coordinateSystem.sceneHeading 90deg
param *.environment.ground.typename "\"FlatGround\""
param *.quads[*].osgModel "\"3d/drone.ive.80.scale.0,0,90.rot\""
param *.quads[*].mobility.coordinateSystemModule "\"coordinateSystem\""
param *.quads[*].mobility.waypointFile "\"paths/gradys-vai-e-volta-descendo-5s-v1.txt\""
param *.quads[*].mobility.waypointProximity 1m
param **.mobility.initFromDisplayString false
param *.quads[*].mobility.speed 10mps
param *.quads[*].numApps 1
param *.quads[*].app[0].typename "\"UdpMobileNodeCommunicationApp\""
param *.quads[*].app[0].localPort 1000
param *.quads[*].app[0].destPort 1000
param *.quads[*].app[0].sendInterval 1s
param *.quads[*].app[0].startTime 1s
param *.quads[*].app[0].stopTime -1s
param *.quads[*].app[0].messageLength 1454Byte
param *.quads[*].app[0].packetName "\"UAV-DEFAULT-PAYLOAD\""
param *.quads[*].mobility.typename "\"DroneMobility\""
param *.sensors[*].mobility.typename "\"StationaryMobility\""
param *.sensors[*].mobility.coordinateSystemModule "\"coordinateSystem\""
param *.groundStation.mobility.typename "\"StationaryMobility\""
param *.groundStation.mobility.coordinateSystemModule "\"coordinateSystem\""
param *.groundStation.numApps 1
param *.groundStation.app[0].typename "\"UdpMobileNodeCommunicationApp\""
param *.groundStation.app[0].destPort 1000
param *.groundStation.app[0].localPort 1000
param *.groundStation.app[0].sendInterval 1s
param *.groundStation.app[0].stopTime -1s
param *.groundStation.app[0].messageLength 1454Byte
param *.groundStation.app[0].packetName "\"UAV-DEFAULT-PAYLOAD\""

vector 0 mobilityDrones.quads[0].wlan[0].radio radioMode:vector ETV
attr interpolationmode sample-hold
attr source radioModeChanged
attr title "Radio mode, vector"
vector 1 mobilityDrones.quads[0].wlan[0].radio radioChannel:vector ETV
attr interpolationmode sample-hold
attr source radioChannelChanged
attr title "Radio channel, vector"
vector 2 mobilityDrones.quads[1].wlan[0].radio radioMode:vector ETV
attr interpolationmode sample-hold
attr source radioModeChanged
attr title "Radio mode, vector"
vector 3 mobilityDrones.quads[1].wlan[0].radio radioChannel:vector ETV
attr interpolationmode sample-hold
attr source radioChannelChanged
attr title "Radio channel, vector"
vector 4 mobilityDrones.quads[2].wlan[0].radio radioMode:vector ETV
attr interpolationmode sample-hold
attr source radioModeChanged
attr title "Radio mode, vector"
vector 5 mobilityDrones.quads[2].wlan[0].radio radioChannel:vector ETV
attr interpolationmode sample-hold
attr source radioChannelChanged
attr title "Radio channel, vector"
vector 6 mobilityDrones.quads[3].wlan[0].radio radioMode:vector ETV
attr interpolationmode sample-hold
attr source radioModeChanged
attr title "Radio mode, vector"
vector 7 mobilityDrones.quads[3].wlan[0].radio radioChannel:vector ETV
attr interpolationmode sample-hold
attr source radioChannelChanged
attr title "Radio channel, vector"
vector 8 mobilityDrones.sensors[0].wlan[0].radio radioMode:vector ETV
attr interpolationmode sample-hold
attr source radioModeChanged
attr title "Radio mode, vector"
vector 9 mobilityDrones.sensors[0].wlan[0].radio radioChannel:vector ETV
attr interpolationmode sample-hold
attr source radioChannelChanged
attr title "Radio channel, vector"
vector 10 mobilityDrones.sensors[1].wlan[0].radio radioMode:vector ETV
attr interpolationmode sample-hold
attr source radioModeChanged
attr title "Radio mode, vector"
vector 11 mobilityDrones.sensors[1].wlan[0].radio radioChannel:vector ETV
attr interpolationmode sample-hold
attr source radioChannelChanged
attr title "Radio channel, vector"
vector 12 mobilityDrones.sensors[2].wlan[0].radio radioMode:vector ETV
attr interpolationmode sample-hold
attr source radioModeChanged
attr title "Radio mode, vector"
vector 13 mobilityDrones.sensors[2].wlan[0].radio radioChannel:vector ETV
attr interpolationmode sample-hold
attr source radioChannelChanged
attr title "Radio channel, vector"
vector 14 mobilityDrones.sensors[3].wlan[0].radio radioMode:vector ETV
attr interpolationmode sample-hold
attr source radioModeChanged
attr title "Radio mode, vector"
vector 15 mobilityDrones.sensors[3].wlan[0].radio radioChannel:vector ETV
attr interpolationmode sample-hold
attr source radioChannelChanged
attr title "Radio channel, vector"
vector 16 mobilityDrones.sensors[4].wlan[0].radio radioMode:vector ETV
attr interpolationmode sample-hold
attr source radioModeChanged
attr title "Radio mode, vector"
vector 17 mobilityDrones.sensors[4].wlan[0].radio radioChannel:vector ETV
attr interpolationmode sample-hold
attr source radioChannelChanged
attr title "Radio channel, vector"
vector 18 mobilityDrones.sensors[5].wlan[0].radio radioMode:vector ETV
attr interpolationmode sample-hold
attr source radioModeChanged
attr title "Radio mode, vector"
vector 19 mobilityDrones.sensors[5].wlan[0].radio radioChannel:vector ETV
attr interpolationmode sample-hold
attr source radioChannelChanged
attr title "Radio channel, vector"
vector 20 mobilityDrones.sensors[6].wlan[0].radio radioMode:vector ETV
attr interpolationmode sample-hold
attr source radioModeChanged
attr title "Radio mode, vector"
vector 21 mobilityDrones.sensors[6].wlan[0].radio radioChannel:vector ETV
attr interpolationmode sample-hold
attr source radioChannelChanged
attr title "Radio channel, vector"
vector 22 mobilityDrones.sensors[7].wlan[0].radio radioMode:vector ETV
attr interpolationmode sample-hold
attr source radioModeChanged
attr title "Radio mode, vector"
vector 23 mobilityDrones.sensors[7].wlan[0].radio radioChannel:vector ETV
attr interpolationmode sample-hold
attr source radioChannelChanged
attr title "Radio channel, vector"
vector 24 mobilityDrones.groundStation.wlan[0].radio radioMode:vector ETV
attr interpolationmode sample-hold
attr source radioModeChanged
attr title "Radio mode, vector"
vector 25 mobilityDrones.groundStation.wlan[0].radio radioChannel:vector ETV
attr interpolationmode sample-hold
attr source radioChannelChanged
attr title "Radio channel, vector"
vector 26 mobilityDrones.quads[0].wlan[0].radio receptionState:vector ETV
attr interpolationmode sample-hold
attr source receptionStateChanged
attr title "Radio reception state, vector"
vector 27 mobilityDrones.quads[1].wlan[0].radio receptionState:vector ETV
attr interpolationmode sample-hold
attr source receptionStateChanged
attr title "Radio reception state, vector"
vector 28 mobilityDrones.quads[2].wlan[0].radio receptionState:vector ETV
attr interpolationmode sample-hold
attr source receptionStateChanged
attr title "Radio reception state, vector"
vector 29 mobilityDrones.quads[3].wlan[0].radio receptionState:vector ETV
attr interpolationmode sample-hold
attr source receptionStateChanged
attr title "Radio reception state, vector"
vector 30 mobilityDrones.sensors[0].wlan[0].radio receptionState:vector ETV
attr interpolationmode sample-hold
attr source receptionStateChanged
attr title "Radio reception state, vector"
vector 31 mobilityDrones.sensors[1].wlan[0].radio receptionState:vector ETV
attr interpolationmode sample-hold
attr source receptionStateChanged
attr title "Radio reception state, vector"
vector 32 mobilityDrones.sensors[2].wlan[0].radio receptionState:vector ETV
attr interpolationmode sample-hold
attr source receptionStateChanged
attr title "Radio reception state, vector"
vector 33 mobilityDrones.sensors[3].wlan[0].radio receptionState:vector ETV
attr interpolationmode sample-hold
attr source receptionStateChanged
attr title "Radio reception state, vector"
vector 34 mobilityDrones.sensors[4].wlan[0].radio receptionState:vector ETV
attr interpolationmode sample-hold
attr source receptionStateChanged
attr title "Radio reception state, vector"
vector 35 mobilityDrones.sensors[5].wlan[0].radio receptionState:vector ETV
attr interpolationmode sample-hold
attr source receptionStateChanged
attr title "Radio reception state, vector"
vector 36 mobilityDrones.sensors[6].wlan[0].radio receptionState:vector ETV
attr interpolationmode sample-hold
attr source receptionStateChanged
attr title "Radio reception state, vector"
vector 37 mobilityDrones.sensors[7].wlan[0].radio receptionState:vector ETV
attr interpolationmode sample-hold
attr source receptionStateChanged
attr title "Radio reception state, vector"
vector 38 mobilityDrones.groundStation.wlan[0].radio receptionState:vector ETV
attr interpolationmode sample-hold
attr source receptionStateChanged
attr title "Radio reception state, vector"
vector 39 mobilityDrones.quads[0].wlan[0].mac.dcf.recoveryProcedure contentionWindowChanged:vector ETV
attr interpolationmode sample-hold
attr title "contention window, vector"
vector 40 mobilityDrones.quads[1].wlan[0].mac.dcf.recoveryProcedure contentionWindowChanged:vector ETV
attr interpolationmode sample-hold
attr title "contention window, vector"
vector 41 mobilityDrones.quads[2].wlan[0].mac.dcf.recoveryProcedure contentionWindowChanged:vector ETV
attr interpolationmode sample-hold
attr title "contention window, vector"
vector 42 mobilityDrones.quads[3].wlan[0].mac.dcf.recoveryProcedure contentionWindowChanged:vector ETV
attr interpolationmode sample-hold
attr title "contention window, vector"
vector 43 mobilityDrones.sensors[0].wlan[0].mac.dcf.recoveryProcedure contentionWindowChanged:vector ETV
attr interpolationmode sample-hold
attr title "contention window, vector"
vector 44 mobilityDrones.sensors[1].wlan[0].mac.dcf.recoveryProcedure contentionWindowChanged:vector ETV
attr interpolationmode sample-hold
attr title "contention window, vector"
vector 45 mobilityDrones.sensors[2].wlan[0].mac.dcf.recoveryProcedure contentionWindowChanged:vector ETV
attr interpolationmode sample-hold
attr title "contention window, vector"
vector 46 mobilityDrones.sensors[3].wlan[0].mac.dcf.recoveryProcedure contentionWindowChanged:vector ETV
attr interpolationmode sample-hold
attr title "contention window, vector"
vector 47 mobilityDrones.sensors[4].wlan[0].mac.dcf.recoveryProcedure contentionWindowChanged:vector ETV
attr interpolationmode sample-hold
attr title "contention window, vector"
vector 48 mobilityDrones.sensors[5].wlan[0].mac.dcf.recoveryProcedure contentionWindowChanged:vector ETV
attr interpolationmode sample-hold
attr title "contention window, vector"
vector 49 mobilityDrones.sensors[6].wlan[0].mac.dcf.recoveryProcedure contentionWindowChanged:vector ETV
attr interpolationmode sample-hold
attr title "contention window, vector"
vector 50 mobilityDrones.sensors[7].wlan[0].mac.dcf.recoveryProcedure contentionWindowChanged:vector ETV
attr interpolationmode sample-hold
attr title "contention window, vector"
vector 51 mobilityDrones.groundStation.wlan[0].mac.dcf.recoveryProcedure contentionWindowChanged:vector ETV
attr interpolationmode sample-hold
attr title "contention window, vector"
vector 52 mobilityDrones.quads[0].app[0] packetSent:vector(packetBytes) ETV
attr interpolationmode none
attr source packetSent
attr title "packets sent, vector(packetBytes)"
vector 53 mobilityDrones.quads[0].udp packetSent:vector(packetBytes) ETV
attr interpolationmode none
attr source packetSent
attr title "packets sent, vector(packetBytes)"
vector 54 mobilityDrones.quads[0].lo[0].lo rcvdPkFromHl:vector(packetBytes) ETV
attr interpolationmode none
attr source packetReceivedFromUpper
attr title "packets received from higher layer, vector(packetBytes)"
vector 55 mobilityDrones.quads[0].lo[0].lo passedUpPk:vector(packetBytes) ETV
attr interpolationmode none
attr source packetSentToUpper
attr title "packets passed to higher layer, vector(packetBytes)"
vector 56 mobilityDrones.quads[0].wlan[0].mac packetReceivedFromUpper:vector(packetBytes) ETV
attr interpolationmode none
attr title "packets received from upper layer, vector(packetBytes)"
vector 57 mobilityDrones.quads[0].wlan[0].mac.dcf.channelAccess.pendingQueue packetPushed:vector(packetBytes) ETV
attr interpolationmode none
attr title "packet pushed, vector(packetBytes)"
vector 58 mobilityDrones.quads[0].wlan[0].mac.dcf.channelAccess.pendingQueue queueLength:vector ETV
attr interpolationmode sample-hold
attr source "count(packetPushed) - count(packetPopped) - count(packetRemoved) - count(packetDropped)"
attr title "queue length, vector"
vector 59 mobilityDrones.quads[0].wlan[0].mac.dcf.channelAccess.contention backoffPeriodGenerated:vector ETV
attr interpolationmode none
attr title "backoff periods, vector"
vector 60 mobilityDrones.quads[0].wlan[0].mac.dcf.channelAccess.contention backoffActive:vector ETV
attr interpolationmode sample-hold
attr source count(backoffStarted)-count(backoffStopped)
attr title "backoff active, vector"
vector 61 mobilityDrones.quads[0].udp packetReceived:vector(packetBytes) ETV
attr interpolationmode none
attr source packetReceived
attr title "packets received, vector(packetBytes)"
vector 62 mobilityDrones.quads[0].udp passedUpPk:vector(count) ETV
attr interpolationmode none
attr source packetSentToUpper
attr title "packets passed up, vector(count)"
vector 63 mobilityDrones.quads[0].wlan[0].mac.dcf.channelAccess.pendingQueue packetPopped:vector(packetBytes) ETV
attr interpolationmode none
attr title "packet popped, vector(packetBytes)"
vector 64 mobilityDrones.quads[0].wlan[0].mac.dcf.channelAccess.pendingQueue queueingTime:vector ETV
attr interpolationmode none
attr source queueingTime(packetPopped)
attr title "queueing times, vector"
attr unit s
vector 65 mobilityDrones.quads[0].wlan[0].mac.dcf.channelAccess.inProgressFrames queueLength:vector ETV
attr interpolationmode sample-hold
attr source "count(packetEnqueued) - count(packetDequeued)"
attr title "queue length, vector"
vector 66 mobilityDrones.quads[0].wlan[0].mac.dcf datarateSelected:vector ETV
attr interpolationmode none
attr title "datarates selected, vector"
vector 67 mobilityDrones.quads[0].wlan[0].mac packetSentToLower:vector(packetBytes) ETV
attr interpolationmode none
attr title "packets sent to lower layer, vector(packetBytes)"
vector 68 mobilityDrones.quads[0].wlan[0].mac.dcf frameSequenceActive:vector ETV
attr interpolationmode sample-hold
attr source count(frameSequenceStarted)-count(frameSequenceFinished)
attr title "frame sequence active, vector"
vector 69 mobilityDrones.quads[0].wlan[0].radio transmissionState:vector ETV
attr interpolationmode sample-hold
attr source transmissionStateChanged
attr title "Radio transmission state, vector"
vector 70 mobilityDrones.quads[0].wlan[0].mac.dcf packetSentToPeer:vector(packetBytes) ETV
attr interpolationmode none
attr title "packets sent, vector(packetBytes)"
vector 71 mobilityDrones.quads[0].wlan[0].mac.dcf packetSentToPeerMulticast:vector(packetBytes) ETV
attr interpolationmode none
attr source ieee80211Multicast(packetSentToPeer)
attr title "packets sent: multicast, vector(packetBytes)"
vector 72 mobilityDrones.quads[0].wlan[0].mac.dcf packetSentToPeerWithoutRetry:vector(packetBytes) ETV
attr interpolationmode none
attr source ieee80211NotRetry(packetSentToPeer)
attr title "packets sent: without retry, vector(packetBytes)"
vector 73 mobilityDrones.quads[0].wlan[0].mac.dcf.channelAccess.inProgressFrames queueingTime:vector ETV
attr interpolationmode none
attr source queueingTime(packetDequeued)
attr title "queueing times, vector"
vector 74 mobilityDrones.quads[1].wlan[0].mac packetReceivedFromLower:vector(packetBytes) ETV
attr interpolationmode none
attr title "packets received from lower layer, vector(packetBytes)"
vector 75 mobilityDrones.quads[1].wlan[0].mac.dcf packetReceivedFromPeer:vector(packetBytes) ETV
attr interpolationmode none
attr title "packets received, vector(packetBytes)"
vector 76 mobilityDrones.quads[1].wlan[0].mac.dcf packetReceivedFromPeerMulticast:vector(packetBytes) ETV
attr interpolationmode none
attr source ieee80211Multicast(packetReceivedFromPeer)
attr title "packets received: multicast, vector(packetBytes)"
vector 77 mobilityDrones.quads[1].wlan[0].mac.dcf packetReceivedFromPeerWithoutRetry:vector(packetBytes) ETV
attr interpolationmode none
attr source ieee80211NotRetry(packetReceivedFromPeer)
attr title "packets received: without retry, vector(packetBytes)"
vector 78 mobilityDrones.quads[1].wlan[0].mac packetSentToUpper:vector(packetBytes) ETV
attr interpolationmode none
attr title "packets sent to upper layer, vector(packetBytes)"
vector 79 mobilityDrones.quads[2].wlan[0].mac packetReceivedFromLower:vector(packetBytes) ETV
attr interpolationmode none
attr title "packets received from lower layer, vector(packetBytes)"
vector 80 mobilityDrones.quads[2].wlan[0].mac.dcf packetReceivedFromPeer:vector(packetBytes) ETV
attr interpolationmode none
attr title "packets received, vector(packetBytes)"
vector 81 mobilityDrones.quads[2].wlan[0].mac.dcf packetReceivedFromPeerMulticast:vector(packetBytes) ETV
attr interpolationmode none
attr source ieee80211Multicast(packetReceivedFromPeer)
attr title "packets received: multicast, vector(packetBytes)"
vector 82 mobilityDrones.quads[2].wlan[0].mac.dcf packetReceivedFromPeerWithoutRetry:vector(packetBytes) ETV
attr interpolationmode none
attr source ieee80211NotRetry(packetReceivedFromPeer)
attr title "packets received: without retry, vector(packetBytes)"
vector 83 mobilityDrones.quads[2].wlan[0].mac packetSentToUpper:vector(packetBytes) ETV
attr interpolationmode none
attr title "packets sent to upper layer, vector(packetBytes)"
vector 84 mobilityDrones.quads[3].wlan[0].mac packetReceivedFromLower:vector(packetBytes) ETV
attr interpolationmode none
attr title "packets received from lower layer, vector(packetBytes)"
vector 85 mobilityDrones.quads[3].wlan[0].mac.dcf packetReceivedFromPeer:vector(packetBytes) ETV
attr interpolationmode none
attr title "packets received, vector(packetBytes)"
vector 86 mobilityDrones.quads[3].wlan[0].mac.dcf packetReceivedFromPeerMulticast:vector(packetBytes) ETV
attr interpolationmode none
attr source ieee80211Multicast(packetReceivedFromPeer)
attr title "packets received: multicast, vector(packetBytes)"
vector 87 mobilityDrones.quads[3].wlan[0].mac.dcf packetReceivedFromPeerWithoutRetry:vector(packetBytes) ETV
attr interpolationmode none
attr source ieee80211NotRetry(packetReceivedFromPeer)
attr title "packets received: without retry, vector(packetBytes)"
vector 88 mobilityDrones.quads[3].wlan[0].mac packetSentToUpper:vector(packetBytes) ETV
attr interpolationmode none
attr title "packets sent to upper layer, vector(packetBytes)"
vector 89 mobilityDrones.groundStation.wlan[0].mac packetReceivedFromLower:vector(packetBytes) ETV
attr interpolationmode none
attr title "packets received from lower layer, vector(packetBytes)"
vector 90 mobilityDrones.groundStation.wlan[0].mac.dcf packetReceivedFromPeer:vector(packetBytes) ETV
attr interpolationmode none
attr title "packets received, vector(packetBytes)"
vector 91 mobilityDrones.groundStation.wlan[0].mac.dcf packetReceivedFromPeerMulticast:vector(packetBytes) ETV
attr interpolationmode none
attr source ieee80211Multicast(packetReceivedFromPeer)
attr title "packets received: multicast, vector(packetBytes)"
vector 92 mobilityDrones.groundStation.wlan[0].mac.dcf packetReceivedFromPeerWithoutRetry:vector(packetBytes) ETV
attr interpolationmode none
attr source ieee80211NotRetry(packetReceivedFromPeer)
attr title "packets received: without retry, vector(packetBytes)"
vector 93 mobilityDrones.groundStation.wlan[0].mac packetSentToUpper:vector(packetBytes) ETV
attr interpolationmode none
attr title "packets sent to upper layer, vector(packetBytes)"
vector 94 mobilityDrones.quads[2].wlan[0].mac packetDrop:vector(packetBytes) ETV
attr interpolationmode none
attr source packetDropped
attr title "packet drops, vector(packetBytes)"
vector 95 mobilityDrones.quads[2].wlan[0].mac packetDropIncorrectlyReceived:vector(packetBytes) ETV
attr interpolationmode none
attr source packetDropReasonIsIncorrectlyReceived(packetDropped)
attr title "packet drops: incorrectly received, vector(packetBytes)"
vector 96 mobilityDrones.quads[3].wlan[0].mac packetDrop:vector(packetBytes) ETV
attr interpolationmode none
attr source packetDropped
attr title "packet drops, vector(packetBytes)"
vector 97 mobilityDrones.quads[3].wlan[0].mac packetDropIncorrectlyReceived:vector(packetBytes) ETV
attr interpolationmode none
attr source packetDropReasonIsIncorrectlyReceived(packetDropped)
attr title "packet drops: incorrectly received, vector(packetBytes)"
0	0	0	0
0	0	0	0
0	0	0	2
0	84	0.00005	3
0	103	0.000104	2
0	136	0.000774	3
0	165	0.000828	2
0	188	0.001078	3
0	203	0.001132	2
0	230	0.001582	3
0	245	0.001636	2
0	304	1	3
0	319	1.000054	2
0	388	2	3
0	403	2.000054	2
0	430	2.000704	3
0	445	2.000758	2
0	496	3	3
0	511	3.000054	2
0	561	4	3
0	576	4.000054	2
0	623	5	3
0	638	5.000054	2
0	685	6	3
0	700	6.000054	2
0	747	7	3
0	762	7.000054	2
0	809	8	3
0	824	8.000054	2
0	873	9	3
0	888	9.000054	2
0	939	10	3
0	954	10.000054	2
0	1002	11	3
0	1017	11.000054	2
0	1065	12	3
0	1080	12.000054	2
0	1127	13	3
0	1142	13.000054	2
0	1189	14	3
0	1204	14.000054	2
0	1247	15	3
0	1262	15.000054	2
0	1297	16	3
0	1312	16.000054	2
0	1349	17	3
0	1364	17.000054	2
0	1403	18	3
0	1418	18.000054	2
0	1454	19	3
0	1469	19.000054	2
0	1498	19.2	3
0	1513	19.200054	2
0	1546	20	3
0	1561	20.000054	2
0	1596	21	3
0	1611	21.000054	2
0	1646	22	3
0	1661	22.000054	2
0	1696	23	3
0	1711	23.000054	2
0	1746	24	3
0	1761	24.000054	2
0	1798	25	3
0	1813	25.000054	2
0	1852	26	3
0	1867	26.000054	2
0	1903	27	3
0	1918	27.000054	2
0	1954	28	3
0	1969	28.000054	2
0	2004	29	3
0	2019	29.000054	2
0	2054	30	3
0	2069	30.000054	2
0	2104	31	3
0	2119	31.000054	2
0	2154	32	3
0	2169	32.000054	2
0	2206	33	3
0	2221	33.000054	2
0	2260	34	3
0	2275	34.000054	2
0	2311	35	3
0	2326	35.000054	2
0	2362	36	3
0	2377	36.000054	2
1	0	0	0
2	0	0	0
2	0	0	0
2	0	0	2
3	0	0	0
4	0	0	0
4	0	0	0
4	0	0	2
5	0	0	0
6	0	0	0
6	0	0	0
6	0	0	2
7	0	0	0
8	0	0	0
8	0	0	0
8	0	0	2
9	0	0	0
10	0	0	0
10	0	0	0
10	0	0	2
11	0	0	0
12	0	0	0
12	0	0	0
12	0	0	2
13	0	0	0
14	0	0	0
14	0	0	0
14	0	0	2
15	0	0	0
16	0	0	0
16	0	0	0
16	0	0	2
17	0	0	0
18	0	0	0
18	0	0	0
18	0	0	2
19	0	0	0
20	0	0	0
20	0	0	0
20	0	0	2
21	0	0	0
22	0	0	0
22	0	0	0
22	0	0	2
23	0	0	0
24	0	0	0
24	0	0	0
24	0	0	2
25	0	0	0
26	0	0	1
26	84	0.00005	0
26	103	0.000104	1
26	136	0.000774	0
26	165	0.000828	1
26	188	0.001078	0
26	203	0.001132	1
26	230	0.001582	0
26	245	0.001636	1
26	304	1	0
26	319	1.000054	1
26	388	2	0
26	403	2.000054	1
26	430	2.000704	0
26	445	2.000758	1
26	496	3	0
26	511	3.000054	1
26	561	4	0
26	576	4.000054	1
26	623	5	0
26	638	5.000054	1
26	685	6	0
26	700	6.000054	1
26	747	7	0
26	762	7.000054	1
26	809	8	0
26	824	8.000054	1
26	873	9	0
26	888	9.000054	1
26	939	10	0
26	954	10.000054	1
26	1002	11	0
26	1017	11.000054	1
26	1065	12	0
26	1080	12.000054	1
26	1127	13	0
26	1142	13.000054	1
26	1189	14	0
26	1204	14.000054	1
26	1247	15	0
26	1262	15.000054	1
26	1297	16	0
26	1312	16.000054	1
26	1349	17	0
26	1364	17.000054	1
26	1403	18	0
26	1418	18.000054	1
26	1454	19	0
26	1469	19.000054	1
26	1498	19.2	0
26	1513	19.200054	1
26	1546	20	0
26	1561	20.000054	1
26	1596	21	0
26	1611	21.000054	1
26	1646	22	0
26	1661	22.000054	1
26	1696	23	0
26	1711	23.000054	1
26	1746	24	0
26	1761	24.000054	1
26	1798	25	0
26	1813	25.000054	1
26	1852	26	0
26	1867	26.000054	1
26	1903	27	0
26	1918	27.000054	1
26	1954	28	0
26	1969	28.000054	1
26	2004	29	0
26	2019	29.000054	1
26	2054	30	0
26	2069	30.000054	1
26	2104	31	0
26	2119	31.000054	1
26	2154	32	0
26	2169	32.000054	1
26	2206	33	0
26	2221	33.000054	1
26	2260	34	0
26	2275	34.000054	1
26	2311	35	0
26	2326	35.000054	1
26	2362	36	0
26	2377	36.000054	1
27	0	0	1
27	86	0.00005	3
27	99	0.000104	1
27	139	0.000774	3
27	161	0.000828	1
27	190	0.001078000013	3
27	204	0.001132000013	1
27	232	0.001582000037	3
27	246	0.001636000037	1
27	306	1.000000033331	3
27	320	1.000054033331	1
27	390	2.000000066501	3
27	404	2.000054066501	1
27	432	2.000704066525	3
27	446	2.000758066525	1
27	498	3.000000073352	3
27	512	3.000054073352	1
27	563	4.000000091945	3
27	577	4.000054091945	1
27	625	5.00000011727	3
27	639	5.00005411727	1
27	687	6.000000145863	3
27	701	6.000054145863	1
27	749	7.000000176139	3
27	763	7.000054176139	1
27	811	8.000000207363	3
27	825	8.000054207363	1
27	875	9.000000239163	3
27	889	9.000054239163	1
27	941	10.000000271337	3
27	955	10.000054271337	1
27	1004	11.000000303766	3
27	1018	11.000054303766	1
27	1067	12.000000336377	3
27	1081	12.000054336377	1
27	1129	13.000000369121	3
27	1143	13.000054369121	1
27	1191	14.000000401966	3
27	1205	14.000054401966	1
28	0	0	1
28	87	0.00005	3
28	100	0.000104	1
28	140	0.000774	3
28	162	0.000828	1
28	191	0.001078000013	3
28	205	0.001132000013	1
28	233	0.001582000037	3
28	247	0.001636000037	1
28	307	1.000000033331	3
28	321	1.000054033331	1
28	391	2.000000066501	3
28	405	2.000054066501	1
28	433	2.000704066525	3
28	447	2.000758066525	1
28	499	3.000000073352	3
28	513	3.000054073352	1
28	564	4.000000091945	3
28	578	4.000054091945	1
28	626	5.00000011727	3
28	640	5.00005411727	1
28	688	6.000000145863	3
28	702	6.000054145863	1
28	750	7.000000176139	3
28	764	7.000054176139	1
28	812	8.000000207363	3
28	826	8.000054207363	1
28	876	9.000000239163	3
28	890	9.000054239163	1
28	942	10.000000271337	3
28	956	10.000054271337	1
28	1005	11.000000303766	3
28	1019	11.000054303766	1
28	1068	12.000000336377	3
28	1082	12.000054336377	1
28	1130	13.000000369121	3
28	1144	13.000054369121	1
28	1192	14.000000401966	3
28	1206	14.000054401966	1
29	0	0	1
29	88	0.00005	3
29	101	0.000104	1
29	141	0.000774	3
29	163	0.000828	1
29	192	0.001078000013	3
29	206	0.001132000013	1
29	234	0.001582000037	3
29	248	0.001636000037	1
29	308	1.000000033331	3
29	322	1.000054033331	1
29	392	2.000000066501	3
29	406	2.000054066501	1
29	434	2.000704066525	3
29	448	2.000758066525	1
29	500	3.000000073352	3
29	514	3.000054073352	1
29	565	4.000000091945	3
29	579	4.000054091945	1
29	627	5.00000011727	3
29	641	5.00005411727	1
29	689	6.000000145863	3
29	703	6.000054145863	1
29	751	7.000000176139	3
29	765	7.000054176139	1
29	813	8.000000207363	3
29	827	8.000054207363	1
29	877	9.000000239163	3
29	891	9.000054239163	1
29	943	10.000000271337	3
29	957	10.000054271337	1
29	1006	11.000000303766	3
29	1020	11.000054303766	1
29	1069	12.000000336377	3
29	1083	12.000054336377	1
29	1131	13.000000369121	3
29	1145	13.000054369121	1
29	1193	14.000000401966	3
29	1207	14.000054401966	1
30	0	0	1
31	0	0	1
32	0	0	1
33	0	0	1
34	0	0	1
35	0	0	1
36	0	0	1
37	0	0	1
38	0	0	1
38	89	0.00005	3
38	102	0.000104	1
38	142	0.000774	3
38	164	0.000828	1
38	193	0.001078000013	3
38	207	0.001132000013	1
38	235	0.001582000037	3
38	249	0.001636000037	1
38	309	1.000000033331	3
38	323	1.000054033331	1
38	393	2.000000066501	3
38	407	2.000054066501	1
38	435	2.000704066525	3
38	449	2.000758066525	1
38	501	3.000000073352	3
38	515	3.000054073352	1
38	566	4.000000091945	3
38	580	4.000054091945	1
38	628	5.00000011727	3
38	642	5.00005411727	1
38	690	6.000000145863	3
38	704	6.000054145863	1
38	752	7.000000176139	3
38	766	7.000054176139	1
38	814	8.000000207363	3
38	828	8.000054207363	1
38	878	9.000000239163	3
38	892	9.000054239163	1
38	944	10.000000271337	3
38	958	10.000054271337	1
38	1007	11.000000303766	3
38	1021	11.000054303766	1
38	1070	12.000000336377	3
38	1084	12.000054336377	1
38	1132	13.000000369121	3
38	1146	13.000054369121	1
38	1194	14.000000401966	3
38	1208	14.000054401966	1
39	0	0	31
40	0	0	31
41	0	0	31
42	0	0	31
43	0	0	31
44	0	0	31
45	0	0	31
46	0	0	31
47	0	0	31
48	0	0	31
49	0	0	31
50	0	0	31
51	0	0	31
52	52	0	14
52	60	0	14
52	113	0.000104	14
52	143	0.000774	14
52	292	1	14
52	366	2	14
52	371	2	14
52	484	3	14
52	549	4	14
52	611	5	14
52	673	6	14
52	735	7	14
52	797	8	14
52	861	9	14
52	927	10	14
52	990	11	14
52	1053	12	14
52	1115	13	14
52	1177	14	14
52	1235	15	14
52	1285	16	14
52	1337	17	14
52	1391	18	14
52	1442	19	14
52	1487	19.2	14
52	1534	20	14
52	1584	21	14
52	1634	22	14
52	1684	23	14
52	1734	24	14
52	1786	25	14
52	1840	26	14
52	1891	27	14
52	1942	28	14
52	1992	29	14
52	2042	30	14
52	2092	31	14
52	2142	32	14
52	2194	33	14
52	2248	34	14
52	2299	35	14
52	2350	36	14
53	66	0	22
53	67	0	22
53	118	0.000104	22
53	144	0.000774	22
53	294	1	22
53	368	2	22
53	374	2	22
53	486	3	22
53	551	4	22
53	613	5	22
53	675	6	22
53	737	7	22
53	799	8	22
53	863	9	22
53	929	10	22
53	992	11	22
53	1055	12	22
53	1117	13	22
53	1179	14	22
53	1237	15	22
53	1287	16	22
53	1339	17	22
53	1393	18	22
53	1444	19	22
53	1488	19.2	22
53	1536	20	22
53	1586	21	22
53	1636	22	22
53	1686	23	22
53	1736	24	22
53	1788	25	22
53	1842	26	22
53	1893	27	22
53	1944	28	22
53	1994	29	22
53	2044	30	22
53	2094	31	22
53	2144	32	22
53	2196	33	22
53	2250	34	22
53	2301	35	22
53	2352	36	22
54	70	0	42
54	72	0	42
54	120	0.000104	42
54	146	0.000774	42
54	296	1	42
54	372	2	42
54	379	2	42
54	488	3	42
54	553	4	42
54	615	5	42
54	677	6	42
54	739	7	42
54	801	8	42
54	865	9	42
54	931	10	42
54	994	11	42
54	1057	12	42
54	1119	13	42
54	1181	14	42
54	1239	15	42
54	1289	16	42
54	1341	17	42
54	1395	18	42
54	1446	19	42
54	1490	19.2	42
54	1538	20	42
54	1588	21	42
54	1638	22	42
54	1688	23	42
54	1738	24	42
54	1790	25	42
54	1844	26	42
54	1895	27	42
54	1946	28	42
54	1996	29	42
54	2046	30	42
54	2096	31	42
54	2146	32	42
54	2198	33	42
54	2252	34	42
54	2303	35	42
54	2354	36	42
55	70	0	42
55	72	0	42
55	120	0.000104	42
55	146	0.000774	42
55	296	1	42
55	372	2	42
55	379	2	42
55	488	3	42
55	553	4	42
55	615	5	42
55	677	6	42
55	739	7	42
55	801	8	42
55	865	9	42
55	931	10	42
55	994	11	42
55	1057	12	42
55	1119	13	42
55	1181	14	42
55	1239	15	42
55	1289	16	42
55	1341	17	42
55	1395	18	42
55	1446	19	42
55	1490	19.2	42
55	1538	20	42
55	1588	21	42
55	1638	22	42
55	1688	23	42
55	1738	24	42
55	1790	25	42
55	1844	26	42
55	1895	27	42
55	1946	28	42
55	1996	29	42
55	2046	30	42
55	2096	31	42
55	2146	32	42
55	2198	33	42
55	2252	34	42
55	2303	35	42
55	2354	36	42
56	75	0	50
56	77	0	50
56	123	0.000104	50
56	149	0.000774	50
56	299	1	50
56	376	2	50
56	383	2	50
56	491	3	50
56	556	4	50
56	618	5	50
56	680	6	50
56	742	7	50
56	804	8	50
56	868	9	50
56	934	10	50
56	997	11	50
56	1060	12	50
56	1122	13	50
56	1184	14	50
56	1242	15	50
56	1292	16	50
56	1344	17	50
56	1398	18	50
56	1449	19	50
56	1493	19.2	50
56	1541	20	50
56	1591	21	50
56	1641	22	50
56	1691	23	50
56	1741	24	50
56	1793	25	50
56	1847	26	50
56	1898	27	50
56	1949	28	50
56	1999	29	50
56	2049	30	50
56	2099	31	50
56	2149	32	50
56	2201	33	50
56	2255	34	50
56	2306	35	50
56	2357	36	50
57	75	0	78
57	77	0	78
57	123	0.000104	78
57	149	0.000774	78
57	299	1	78
57	376	2	78
57	383	2	78
57	491	3	78
57	556	4	78
57	618	5	78
57	680	6	78
57	742	7	78
57	804	8	78
57	868	9	78
57	934	10	78
57	997	11	78
57	1060	12	78
57	1122	13	78
57	1184	14	78
57	1242	15	78
57	1292	16	78
57	1344	17	78
57	1398	18	78
57	1449	19	78
57	1493	19.2	78
57	1541	20	78
57	1591	21	78
57	1641	22	78
57	1691	23	78
57	1741	24	78
57	1793	25	78
57	1847	26	78
57	1898	27	78
57	1949	28	78
57	1999	29	78
57	2049	30	78
57	2099	31	78
57	2149	32	78
57	2201	33	78
57	2255	34	78
57	2306	35	78
57	2357	36	78
58	75	0	1
58	77	0	2
58	83	0.00005	1
58	83	0.00005	0
58	123	0.000104	1
58	135	0.000774	0
58	149	0.000774	1
58	187	0.001078	0
58	299	1	1
58	303	1	0
58	376	2	1
58	383	2	2
58	387	2	1
58	387	2	0
58	491	3	1
58	495	3	0
58	556	4	1
58	560	4	0
58	618	5	1
58	622	5	0
58	680	6	1
58	684	6	0
58	742	7	1
58	746	7	0
58	804	8	1
58	808	8	0
58	868	9	1
58	872	9	0
58	934	10	1
58	938	10	0
58	997	11	1
58	1001	11	0
58	1060	12	1
58	1064	12	0
58	1122	13	1
58	1126	13	0
58	1184	14	1
58	1188	14	0
58	1242	15	1
58	1246	15	0
58	1292	16	1
58	1296	16	0
58	1344	17	1
58	1348	17	0
58	1398	18	1
58	1402	18	0
58	1449	19	1
58	1453	19	0
58	1493	19.2	1
58	1497	19.2	0
58	1541	20	1
58	1545	20	0
58	1591	21	1
58	1595	21	0
58	1641	22	1
58	1645	22	0
58	1691	23	1
58	1695	23	0
58	1741	24	1
58	1745	24	0
58	1793	25	1
58	1797	25	0
58	1847	26	1
58	1851	26	0
58	1898	27	1
58	1902	27	0
58	1949	28	1
58	1953	28	0
58	1999	29	1
58	2003	29	0
58	2049	30	1
58	2053	30	0
58	2099	31	1
58	2103	31	0
58	2149	32	1
58	2153	32	0
58	2201	33	1
58	2205	33	0
58	2255	34	1
58	2259	34	0
58	2306	35	1
58	2310	35	0
58	2357	36	1
58	2361	36	0
59	75	0	0
59	98	0.000104	31
59	160	0.000828	10
59	202	0.001132	20
59	299	1	23
59	376	2	3
59	402	2.000054	30
59	491	3	11
59	556	4	18
59	618	5	23
59	680	6	28
59	742	7	2
59	804	8	0
59	868	9	0
59	934	10	4
59	997	11	20
59	1060	12	10
59	1122	13	1
59	1184	14	6
59	1242	15	27
59	1292	16	0
59	1344	17	14
59	1398	18	3
59	1449	19	21
59	1493	19.2	12
59	1541	20	25
59	1591	21	10
59	1641	22	20
59	1691	23	11
59	1741	24	4
59	1793	25	6
59	1847	26	4
59	1898	27	15
59	1949	28	31
59	1999	29	20
59	2049	30	3
59	2099	31	12
59	2149	32	4
59	2201	33	20
59	2255	34	8
59	2306	35	14
59	2357	36	15
60	75	0	1
60	82	0.00005	0
60	103	0.000104	1
60	134	0.000774	0
60	165	0.000828	1
60	186	0.001078	0
60	203	0.001132	1
60	228	0.001582	0
60	299	1	1
60	302	1	0
60	376	2	1
60	386	2	0
60	403	2.000054	1
60	428	2.000704	0
60	491	3	1
60	494	3	0
60	556	4	1
60	559	4	0
60	618	5	1
60	621	5	0
60	680	6	1
60	683	6	0
60	742	7	1
60	745	7	0
60	804	8	1
60	807	8	0
60	868	9	1
60	871	9	0
60	934	10	1
60	937	10	0
60	997	11	1
60	1000	11	0
60	1060	12	1
60	1063	12	0
60	1122	13	1
60	1125	13	0
60	1184	14	1
60	1187	14	0
60	1242	15	1
60	1245	15	0
60	1292	16	1
60	1295	16	0
60	1344	17	1
60	1347	17	0
60	1398	18	1
60	1401	18	0
60	1449	19	1
60	1452	19	0
60	1493	19.2	1
60	1496	19.2	0
60	1541	20	1
60	1544	20	0
60	1591	21	1
60	1594	21	0
60	1641	22	1
60	1644	22	0
60	1691	23	1
60	1694	23	0
60	1741	24	1
60	1744	24	0
60	1793	25	1
60	1796	25	0
60	1847	26	1
60	1850	26	0
60	1898	27	1
60	1901	27	0
60	1949	28	1
60	1952	28	0
60	1999	29	1
60	2002	29	0
60	2049	30	1
60	2052	30	0
60	2099	31	1
60	2102	31	0
60	2149	32	1
60	2152	32	0
60	2201	33	1
60	2204	33	0
60	2255	34	1
60	2258	34	0
60	2306	35	1
60	2309	35	0
60	2357	36	1
60	2360	36	0
61	78	0	22
61	79	0	22
61	124	0.000104	22
61	150	0.000774	22
61	300	1	22
61	378	2	22
61	384	2	22
61	492	3	22
61	557	4	22
61	619	5	22
61	681	6	22
61	743	7	22
61	805	8	22
61	869	9	22
61	935	10	22
61	998	11	22
61	1061	12	22
61	1123	13	22
61	1185	14	22
61	1243	15	22
61	1293	16	22
61	1345	17	22
61	1399	18	22
61	1450	19	22
61	1494	19.2	22
61	1542	20	22
61	1592	21	22
61	1642	22	22
61	1692	23	22
61	1742	24	22
61	1794	25	22
61	1848	26	22
61	1899	27	22
61	1950	28	22
61	2000	29	22
61	2050	30	22
61	2100	31	22
61	2150	32	22
61	2202	33	22
61	2256	34	22
61	2307	35	22
61	2358	36	22
62	78	0	1
62	79	0	2
62	124	0.000104	3
62	150	0.000774	4
62	300	1	5
62	378	2	6
62	384	2	7
62	492	3	8
62	557	4	9
62	619	5	10
62	681	6	11
62	743	7	12
62	805	8	13
62	869	9	14
62	935	10	15
62	998	11	16
62	1061	12	17
62	1123	13	18
62	1185	14	19
62	1243	15	20
62	1293	16	21
62	1345	17	22
62	1399	18	23
62	1450	19	24
62	1494	19.2	25
62	1542	20	26
62	1592	21	27
62	1642	22	28
62	1692	23	29
62	1742	24	30
62	1794	25	31
62	1848	26	32
62	1899	27	33
62	1950	28	34
62	2000	29	35
62	2050	30	36
62	2100	31	37
62	2150	32	38
62	2202	33	39
62	2256	34	40
62	2307	35	41
62	2358	36	42
63	83	0.00005	78
63	83	0.00005	78
63	135	0.000774	78
63	187	0.001078	78
63	303	1	78
63	387	2	78
63	387	2	78
63	495	3	78
63	560	4	78
63	622	5	78
63	684	6	78
63	746	7	78
63	808	8	78
63	872	9	78
63	938	10	78
63	1001	11	78
63	1064	12	78
63	1126	13	78
63	1188	14	78
63	1246	15	78
63	1296	16	78
63	1348	17	78
63	1402	18	78
63	1453	19	78
63	1497	19.2	78
63	1545	20	78
63	1595	21	78
63	1645	22	78
63	1695	23	78
63	1745	24	78
63	1797	25	78
63	1851	26	78
63	1902	27	78
63	1953	28	78
63	2003	29	78
63	2053	30	78
63	2103	31	78
63	2153	32	78
63	2205	33	78
63	2259	34	78
63	2310	35	78
63	2361	36	78
64	83	0.00005	5e-005
64	83	0.00005	5e-005
64	135	0.000774	0.00067
64	187	0.001078	0.000304
64	303	1	0
64	387	2	0
64	387	2	0
64	495	3	0
64	560	4	0
64	622	5	0
64	684	6	0
64	746	7	0
64	808	8	0
64	872	9	0
64	938	10	0
64	1001	11	0
64	1064	12	0
64	1126	13	0
64	1188	14	0
64	1246	15	0
64	1296	16	0
64	1348	17	0
64	1402	18	0
64	1453	19	0
64	1497	19.2	0
64	1545	20	0
64	1595	21	0
64	1645	22	0
64	1695	23	0
64	1745	24	0
64	1797	25	0
64	1851	26	0
64	1902	27	0
64	1953	28	0
64	2003	29	0
64	2053	30	0
64	2103	31	0
64	2153	32	0
64	2205	33	0
64	2259	34	0
64	2310	35	0
64	2361	36	0
65	83	0.00005	1
65	83	0.00005	2
65	98	0.000104	1
65	135	0.000774	2
65	160	0.000828	1
65	187	0.001078	2
65	202	0.001132	1
65	244	0.001636	0
65	303	1	1
65	318	1.000054	0
65	387	2	1
65	387	2	2
65	402	2.000054	1
65	444	2.000758	0
65	495	3	1
65	510	3.000054	0
65	560	4	1
65	575	4.000054	0
65	622	5	1
65	637	5.000054	0
65	684	6	1
65	699	6.000054	0
65	746	7	1
65	761	7.000054	0
65	808	8	1
65	823	8.000054	0
65	872	9	1
65	887	9.000054	0
65	938	10	1
65	953	10.000054	0
65	1001	11	1
65	1016	11.000054	0
65	1064	12	1
65	1079	12.000054	0
65	1126	13	1
65	1141	13.000054	0
65	1188	14	1
65	1203	14.000054	0
65	1246	15	1
65	1261	15.000054	0
65	1296	16	1
65	1311	16.000054	0
65	1348	17	1
65	1363	17.000054	0
65	1402	18	1
65	1417	18.000054	0
65	1453	19	1
65	1468	19.000054	0
65	1497	19.2	1
65	1512	19.200054	0
65	1545	20	1
65	1560	20.000054	0
65	1595	21	1
65	1610	21.000054	0
65	1645	22	1
65	1660	22.000054	0
65	1695	23	1
65	1710	23.000054	0
65	1745	24	1
65	1760	24.000054	0
65	1797	25	1
65	1812	25.000054	0
65	1851	26	1
65	1866	26.000054	0
65	1902	27	1
65	1917	27.000054	0
65	1953	28	1
65	1968	28.000054	0
65	2003	29	1
65	2018	29.000054	0
65	2053	30	1
65	2068	30.000054	0
65	2103	31	1
65	2118	31.000054	0
65	2153	32	1
65	2168	32.000054	0
65	2205	33	1
65	2220	33.000054	0
65	2259	34	1
65	2274	34.000054	0
65	2310	35	1
65	2325	35.000054	0
65	2361	36	1
65	2376	36.000054	0
66	83	0.00005	24000000
66	135	0.000774	24000000
66	187	0.001078	24000000
66	229	0.001582	24000000
66	303	1	24000000
66	387	2	24000000
66	429	2.000704	24000000
66	495	3	24000000
66	560	4	24000000
66	622	5	24000000
66	684	6	24000000
66	746	7	24000000
66	808	8	24000000
66	872	9	24000000
66	938	10	24000000
66	1001	11	24000000
66	1064	12	24000000
66	1126	13	24000000
66	1188	14	24000000
66	1246	15	24000000
66	1296	16	24000000
66	1348	17	24000000
66	1402	18	24000000
66	1453	19	24000000
66	1497	19.2	24000000
66	1545	20	24000000
66	1595	21	24000000
66	1645	22	24000000
66	1695	23	24000000
66	1745	24	24000000
66	1797	25	24000000
66	1851	26	24000000
66	1902	27	24000000
66	1953	28	24000000
66	2003	29	24000000
66	2053	30	24000000
66	2103	31	24000000
66	2153	32	24000000
66	2205	33	24000000
66	2259	34	24000000
66	2310	35	24000000
66	2361	36	24000000
67	83	0.00005	78
67	135	0.000774	78
67	187	0.001078	78
67	229	0.001582	78
67	303	1	78
67	387	2	78
67	429	2.000704	78
67	495	3	78
67	560	4	78
67	622	5	78
67	684	6	78
67	746	7	78
67	808	8	78
67	872	9	78
67	938	10	78
67	1001	11	78
67	1064	12	78
67	1126	13	78
67	1188	14	78
67	1246	15	78
67	1296	16	78
67	1348	17	78
67	1402	18	78
67	1453	19	78
67	1497	19.2	78
67	1545	20	78
67	1595	21	78
67	1645	22	78
67	1695	23	78
67	1745	24	78
67	1797	25	78
67	1851	26	78
67	1902	27	78
67	1953	28	78
67	2003	29	78
67	2053	30	78
67	2103	31	78
67	2153	32	78
67	2205	33	78
67	2259	34	78
67	2310	35	78
67	2361	36	78
68	83	0.00005	1
68	98	0.000104	0
68	135	0.000774	1
68	160	0.000828	0
68	187	0.001078	1
68	202	0.001132	0
68	229	0.001582	1
68	244	0.001636	0
68	303	1	1
68	318	1.000054	0
68	387	2	1
68	402	2.000054	0
68	429	2.000704	1
68	444	2.000758	0
68	495	3	1
68	510	3.000054	0
68	560	4	1
68	575	4.000054	0
68	622	5	1
68	637	5.000054	0
68	684	6	1
68	699	6.000054	0
68	746	7	1
68	761	7.000054	0
68	808	8	1
68	823	8.000054	0
68	872	9	1
68	887	9.000054	0
68	938	10	1
68	953	10.000054	0
68	1001	11	1
68	1016	11.000054	0
68	1064	12	1
68	1079	12.000054	0
68	1126	13	1
68	1141	13.000054	0
68	1188	14	1
68	1203	14.000054	0
68	1246	15	1
68	1261	15.000054	0
68	1296	16	1
68	1311	16.000054	0
68	1348	17	1
68	1363	17.000054	0
68	1402	18	1
68	1417	18.000054	0
68	1453	19	1
68	1468	19.000054	0
68	1497	19.2	1
68	1512	19.200054	0
68	1545	20	1
68	1560	20.000054	0
68	1595	21	1
68	1610	21.000054	0
68	1645	22	1
68	1660	22.000054	0
68	1695	23	1
68	1710	23.000054	0
68	1745	24	1
68	1760	24.000054	0
68	1797	25	1
68	1812	25.000054	0
68	1851	26	1
68	1866	26.000054	0
68	1902	27	1
68	1917	27.000054	0
68	1953	28	1
68	1968	28.000054	0
68	2003	29	1
68	2018	29.000054	0
68	2053	30	1
68	2068	30.000054	0
68	2103	31	1
68	2118	31.000054	0
68	2153	32	1
68	2168	32.000054	0
68	2205	33	1
68	2220	33.000054	0
68	2259	34	1
68	2274	34.000054	0
68	2310	35	1
68	2325	35.000054	0
68	2361	36	1
68	2376	36.000054	0
69	84	0.00005	1
69	85	0.00005	2
69	98	0.000104	1
69	103	0.000104	0
69	136	0.000774	1
69	137	0.000774	2
69	160	0.000828	1
69	165	0.000828	0
69	188	0.001078	1
69	189	0.001078	2
69	202	0.001132	1
69	203	0.001132	0
69	230	0.001582	1
69	231	0.001582	2
69	244	0.001636	1
69	245	0.001636	0
69	304	1	1
69	305	1	2
69	318	1.000054	1
69	319	1.000054	0
69	388	2	1
69	389	2	2
69	402	2.000054	1
69	403	2.000054	0
69	430	2.000704	1
69	431	2.000704	2
69	444	2.000758	1
69	445	2.000758	0
69	496	3	1
69	497	3	2
69	510	3.000054	1
69	511	3.000054	0
69	561	4	1
69	562	4	2
69	575	4.000054	1
69	576	4.000054	0
69	623	5	1
69	624	5	2
69	637	5.000054	1
69	638	5.000054	0
69	685	6	1
69	686	6	2
69	699	6.000054	1
69	700	6.000054	0
69	747	7	1
69	748	7	2
69	761	7.000054	1
69	762	7.000054	0
69	809	8	1
69	810	8	2
69	823	8.000054	1
69	824	8.000054	0
69	873	9	1
69	874	9	2
69	887	9.000054	1
69	888	9.000054	0
69	939	10	1
69	940	10	2
69	953	10.000054	1
69	954	10.000054	0
69	1002	11	1
69	1003	11	2
69	1016	11.000054	1
69	1017	11.000054	0
69	1065	12	1
69	1066	12	2
69	1079	12.000054	1
69	1080	12.000054	0
69	1127	13	1
69	1128	13	2
69	1141	13.000054	1
69	1142	13.000054	0
69	1189	14	1
69	1190	14	2
69	1203	14.000054	1
69	1204	14.000054	0
69	1247	15	1
69	1248	15	2
69	1261	15.000054	1
69	1262	15.000054	0
69	1297	16	1
69	1298	16	2
69	1311	16.000054	1
69	1312	16.000054	0
69	1349	17	1
69	1350	17	2
69	1363	17.000054	1
69	1364	17.000054	0
69	1403	18	1
69	1404	18	2
69	1417	18.000054	1
69	1418	18.000054	0
69	1454	19	1
69	1455	19	2
69	1468	19.000054	1
69	1469	19.000054	0
69	1498	19.2	1
69	1499	19.2	2
69	1512	19.200054	1
69	1513	19.200054	0
69	1546	20	1
69	1547	20	2
69	1560	20.000054	1
69	1561	20.000054	0
69	1596	21	1
69	1597	21	2
69	1610	21.000054	1
69	1611	21.000054	0
69	1646	22	1
69	1647	22	2
69	1660	22.000054	1
69	1661	22.000054	0
69	1696	23	1
69	1697	23	2
69	1710	23.000054	1
69	1711	23.000054	0
69	1746	24	1
69	1747	24	2
69	1760	24.000054	1
69	1761	24.000054	0
69	1798	25	1
69	1799	25	2
69	1812	25.000054	1
69	1813	25.000054	0
69	1852	26	1
69	1853	26	2
69	1866	26.000054	1
69	1867	26.000054	0
69	1903	27	1
69	1904	27	2
69	1917	27.000054	1
69	1918	27.000054	0
69	1954	28	1
69	1955	28	2
69	1968	28.000054	1
69	1969	28.000054	0
69	2004	29	1
69	2005	29	2
69	2018	29.000054	1
69	2019	29.000054	0
69	2054	30	1
69	2055	30	2
69	2068	30.000054	1
69	2069	30.000054	0
69	2104	31	1
69	2105	31	2
69	2118	31.000054	1
69	2119	31.000054	0
69	2154	32	1
69	2155	32	2
69	2168	32.000054	1
69	2169	32.000054	0
69	2206	33	1
69	2207	33	2
69	2220	33.000054	1
69	2221	33.000054	0
69	2260	34	1
69	2261	34	2
69	2274	34.000054	1
69	2275	34.000054	0
69	2311	35	1
69	2312	35	2
69	2325	35.000054	1
69	2326	35.000054	0
69	2362	36	1
69	2363	36	2
69	2376	36.000054	1
69	2377	36.000054	0
70	98	0.000104	78
70	160	0.000828	78
70	202	0.001132	78
70	244	0.001636	78
70	318	1.000054	78
70	402	2.000054	78
70	444	2.000758	78
70	510	3.000054	78
70	575	4.000054	78
70	637	5.000054	78
70	699	6.000054	78
70	761	7.000054	78
70	823	8.000054	78
70	887	9.000054	78
70	953	10.000054	78
70	1016	11.000054	78
70	1079	12.000054	78
70	1141	13.000054	78
70	1203	14.000054	78
70	1261	15.000054	78
70	1311	16.000054	78
70	1363	17.000054	78
70	1417	18.000054	78
70	1468	19.000054	78
70	1512	19.200054	78
70	1560	20.000054	78
70	1610	21.000054	78
70	1660	22.000054	78
70	1710	23.000054	78
70	1760	24.000054	78
70	1812	25.000054	78
70	1866	26.000054	78
70	1917	27.000054	78
70	1968	28.000054	78
70	2018	29.000054	78
70	2068	30.000054	78
70	2118	31.000054	78
70	2168	32.000054	78
70	2220	33.000054	78
70	2274	34.000054	78
70	2325	35.000054	78
70	2376	36.000054	78
71	98	0.000104	78
71	160	0.000828	78
71	202	0.001132	78
71	244	0.001636	78
71	318	1.000054	78
71	402	2.000054	78
71	444	2.000758	78
71	510	3.000054	78
71	575	4.000054	78
71	637	5.000054	78
71	699	6.000054	78
71	761	7.000054	78
71	823	8.000054	78
71	887	9.000054	78
71	953	10.000054	78
71	1016	11.000054	78
71	1079	12.000054	78
71	1141	13.000054	78
71	1203	14.000054	78
71	1261	15.000054	78
71	1311	16.000054	78
71	1363	17.000054	78
71	1417	18.000054	78
71	1468	19.000054	78
71	1512	19.200054	78
71	1560	20.000054	78
71	1610	21.000054	78
71	1660	22.000054	78
71	1710	23.000054	78
71	1760	24.000054	78
71	1812	25.000054	78
71	1866	26.000054	78
71	1917	27.000054	78
71	1968	28.000054	78
71	2018	29.000054	78
71	2068	30.000054	78
71	2118	31.000054	78
71	2168	32.000054	78
71	2220	33.000054	78
71	2274	34.000054	78
71	2325	35.000054	78
71	2376	36.000054	78
72	98	0.000104	78
72	160	0.000828	78
72	202	0.001132	78
72	244	0.001636	78
72	318	1.000054	78
72	402	2.000054	78
72	444	2.000758	78
72	510	3.000054	78
72	575	4.000054	78
72	637	5.000054	78
72	699	6.000054	78
72	761	7.000054	78
72	823	8.000054	78
72	887	9.000054	78
72	953	10.000054	78
72	1016	11.000054	78
72	1079	12.000054	78
72	1141	13.000054	78
72	1203	14.000054	78
72	1261	15.000054	78
72	1311	16.000054	78
72	1363	17.000054	78
72	1417	18.000054	78
72	1468	19.000054	78
72	1512	19.200054	78
72	1560	20.000054	78
72	1610	21.000054	78
72	1660	22.000054	78
72	1710	23.000054	78
72	1760	24.000054	78
72	1812	25.000054	78
72	1866	26.000054	78
72	1917	27.000054	78
72	1968	28.000054	78
72	2018	29.000054	78
72	2068	30.000054	78
72	2118	31.000054	78
72	2168	32.000054	78
72	2220	33.000054	78
72	2274	34.000054	78
72	2325	35.000054	78
72	2376	36.000054	78
73	98	0.000104	5.4e-005
73	160	0.000828	0.000778
73	202	0.001132	0.000358
73	244	0.001636	0.000558
73	318	1.000054	5.4e-005
73	402	2.000054	5.4e-005
73	444	2.000758	0.000758
73	510	3.000054	5.4e-005
73	575	4.000054	5.4e-005
73	637	5.000054	5.4e-005
73	699	6.000054	5.4e-005
73	761	7.000054	5.4e-005
73	823	8.000054	5.4e-005
73	887	9.000054	5.4e-005
73	953	10.000054	5.4e-005
73	1016	11.000054	5.4e-005
73	1079	12.000054	5.4e-005
73	1141	13.000054	5.4e-005
73	1203	14.000054	5.4e-005
73	1261	15.000054	5.4e-005
73	1311	16.000054	5.4e-005
73	1363	17.000054	5.4e-005
73	1417	18.000054	5.4e-005
73	1468	19.000054	5.4e-005
73	1512	19.200054	5.4e-005
73	1560	20.000054	5.4e-005
73	1610	21.000054	5.4e-005
73	1660	22.000054	5.4e-005
73	1710	23.000054	5.4e-005
73	1760	24.000054	5.4e-005
73	1812	25.000054	5.4e-005
73	1866	26.000054	5.4e-005
73	1917	27.000054	5.4e-005
73	1968	28.000054	5.4e-005
73	2018	29.000054	5.4e-005
73	2068	30.000054	5.4e-005
73	2118	31.000054	5.4e-005
73	2168	32.000054	5.4e-005
73	2220	33.000054	5.4e-005
73	2274	34.000054	5.4e-005
73	2325	35.000054	5.4e-005
73	2376	36.000054	5.4e-005
74	104	0.000104	78
74	166	0.000828	78
74	208	0.001132000013	78
74	250	0.001636000037	78
74	324	1.000054033331	78
74	408	2.000054066501	78
74	450	2.000758066525	78
74	516	3.000054073352	78
74	581	4.000054091945	78
74	643	5.00005411727	78
74	705	6.000054145863	78
74	767	7.000054176139	78
74	829	8.000054207363	78
74	893	9.000054239163	78
74	959	10.000054271337	78
74	1022	11.000054303766	78
74	1085	12.000054336377	78
74	1147	13.000054369121	78
74	1209	14.000054401966	78
75	104	0.000104	78
75	166	0.000828	78
75	208	0.001132000013	78
75	250	0.001636000037	78
75	324	1.000054033331	78
75	408	2.000054066501	78
75	450	2.000758066525	78
75	516	3.000054073352	78
75	581	4.000054091945	78
75	643	5.00005411727	78
75	705	6.000054145863	78
75	767	7.000054176139	78
75	829	8.000054207363	78
75	893	9.000054239163	78
75	959	10.000054271337	78
75	1022	11.000054303766	78
75	1085	12.000054336377	78
75	1147	13.000054369121	78
75	1209	14.000054401966	78
76	104	0.000104	78
76	166	0.000828	78
76	208	0.001132000013	78
76	250	0.001636000037	78
76	324	1.000054033331	78
76	408	2.000054066501	78
76	450	2.000758066525	78
76	516	3.000054073352	78
76	581	4.000054091945	78
76	643	5.00005411727	78
76	705	6.000054145863	78
76	767	7.000054176139	78
76	829	8.000054207363	78
76	893	9.000054239163	78
76	959	10.000054271337	78
76	1022	11.000054303766	78
76	1085	12.000054336377	78
76	1147	13.000054369121	78
76	1209	14.000054401966	78
77	104	0.000104	78
77	166	0.000828	78
77	208	0.001132000013	78
77	250	0.001636000037	78
77	324	1.000054033331	78
77	408	2.000054066501	78
77	450	2.000758066525	78
77	516	3.000054073352	78
77	581	4.000054091945	78
77	643	5.00005411727	78
77	705	6.000054145863	78
77	767	7.000054176139	78
77	829	8.000054207363	78
77	893	9.000054239163	78
77	959	10.000054271337	78
77	1022	11.000054303766	78
77	1085	12.000054336377	78
77	1147	13.000054369121	78
77	1209	14.000054401966	78
78	104	0.000104	50
78	166	0.000828	50
78	208	0.001132000013	50
78	250	0.001636000037	50
78	324	1.000054033331	50
78	408	2.000054066501	50
78	450	2.000758066525	50
78	516	3.000054073352	50
78	581	4.000054091945	50
78	643	5.00005411727	50
78	705	6.000054145863	50
78	767	7.000054176139	50
78	829	8.000054207363	50
78	893	9.000054239163	50
78	959	10.000054271337	50
78	1022	11.000054303766	50
78	1085	12.000054336377	50
78	1147	13.000054369121	50
78	1209	14.000054401966	50
79	105	0.000104	78
79	167	0.000828	78
79	209	0.001132000013	78
79	251	0.001636000037	78
79	325	1.000054033331	78
79	409	2.000054066501	78
79	451	2.000758066525	78
79	517	3.000054073352	78
79	582	4.000054091945	78
79	644	5.00005411727	78
79	706	6.000054145863	78
79	768	7.000054176139	78
79	830	8.000054207363	78
79	894	9.000054239163	78
79	960	10.000054271337	78
79	1023	11.000054303766	78
79	1086	12.000054336377	78
79	1148	13.000054369121	78
79	1210	14.000054401966	78
80	105	0.000104	78
80	167	0.000828	78
80	209	0.001132000013	78
80	251	0.001636000037	78
80	325	1.000054033331	78
80	409	2.000054066501	78
80	451	2.000758066525	78
80	517	3.000054073352	78
80	582	4.000054091945	78
80	644	5.00005411727	78
80	706	6.000054145863	78
80	768	7.000054176139	78
80	830	8.000054207363	78
80	894	9.000054239163	78
80	960	10.000054271337	78
80	1023	11.000054303766	78
80	1086	12.000054336377	78
80	1148	13.000054369121	78
81	105	0.000104	78
81	167	0.000828	78
81	209	0.001132000013	78
81	251	0.001636000037	78
81	325	1.000054033331	78
81	409	2.000054066501	78
81	451	2.000758066525	78
81	517	3.000054073352	78
81	582	4.000054091945	78
81	644	5.00005411727	78
81	706	6.000054145863	78
81	768	7.000054176139	78
81	830	8.000054207363	78
81	894	9.000054239163	78
81	960	10.000054271337	78
81	1023	11.000054303766	78
81	1086	12.000054336377	78
81	1148	13.000054369121	78
82	105	0.000104	78
82	167	0.000828	78
82	209	0.001132000013	78
82	251	0.001636000037	78
82	325	1.000054033331	78
82	409	2.000054066501	78
82	451	2.000758066525	78
82	517	3.000054073352	78
82	582	4.000054091945	78
82	644	5.00005411727	78
82	706	6.000054145863	78
82	768	7.000054176139	78
82	830	8.000054207363	78
82	894	9.000054239163	78
82	960	10.000054271337	78
82	1023	11.000054303766	78
82	1086	12.000054336377	78
82	1148	13.000054369121	78
83	105	0.000104	50
83	167	0.000828	50
83	209	0.001132000013	50
83	251	0.001636000037	50
83	325	1.000054033331	50
83	409	2.000054066501	50
83	451	2.000758066525	50
83	517	3.000054073352	50
83	582	4.000054091945	50
83	644	5.00005411727	50
83	706	6.000054145863	50
83	768	7.000054176139	50
83	830	8.000054207363	50
83	894	9.000054239163	50
83	960	10.000054271337	50
83	1023	11.000054303766	50
83	1086	12.000054336377	50
83	1148	13.000054369121	50
84	106	0.000104	78
84	168	0.000828	78
84	210	0.001132000013	78
84	252	0.001636000037	78
84	326	1.000054033331	78
84	410	2.000054066501	78
84	452	2.000758066525	78
84	518	3.000054073352	78
84	583	4.000054091945	78
84	645	5.00005411727	78
84	707	6.000054145863	78
84	769	7.000054176139	78
84	831	8.000054207363	78
84	895	9.000054239163	78
84	961	10.000054271337	78
84	1024	11.000054303766	78
84	1087	12.000054336377	78
84	1149	13.000054369121	78
84	1211	14.000054401966	78
85	106	0.000104	78
85	168	0.000828	78
85	210	0.001132000013	78
85	252	0.001636000037	78
85	326	1.000054033331	78
85	410	2.000054066501	78
85	452	2.000758066525	78
85	518	3.000054073352	78
85	583	4.000054091945	78
85	645	5.00005411727	78
85	707	6.000054145863	78
85	769	7.000054176139	78
85	831	8.000054207363	78
85	895	9.000054239163	78
85	961	10.000054271337	78
85	1024	11.000054303766	78
85	1087	12.000054336377	78
85	1149	13.000054369121	78
86	106	0.000104	78
86	168	0.000828	78
86	210	0.001132000013	78
86	252	0.001636000037	78
86	326	1.000054033331	78
86	410	2.000054066501	78
86	452	2.000758066525	78
86	518	3.000054073352	78
86	583	4.000054091945	78
86	645	5.00005411727	78
86	707	6.000054145863	78
86	769	7.000054176139	78
86	831	8.000054207363	78
86	895	9.000054239163	78
86	961	10.000054271337	78
86	1024	11.000054303766	78
86	1087	12.000054336377	78
86	1149	13.000054369121	78
87	106	0.000104	78
87	168	0.000828	78
87	210	0.001132000013	78
87	252	0.001636000037	78
87	326	1.000054033331	78
87	410	2.000054066501	78
87	452	2.000758066525	78
87	518	3.000054073352	78
87	583	4.000054091945	78
87	645	5.00005411727	78
87	707	6.000054145863	78
87	769	7.000054176139	78
87	831	8.000054207363	78
87	895	9.000054239163	78
87	961	10.000054271337	78
87	1024	11.000054303766	78
87	1087	12.000054336377	78
87	1149	13.000054369121	78
88	106	0.000104	50
88	168	0.000828	50
88	210	0.001132000013	50
88	252	0.001636000037	50
88	326	1.000054033331	50
88	410	2.000054066501	50
88	452	2.000758066525	50
88	518	3.000054073352	50
88	583	4.000054091945	50
88	645	5.00005411727	50
88	707	6.000054145863	50
88	769	7.000054176139	50
88	831	8.000054207363	50
88	895	9.000054239163	50
88	961	10.000054271337	50
88	1024	11.000054303766	50
88	1087	12.000054336377	50
88	1149	13.000054369121	50
89	107	0.000104	78
89	169	0.000828	78
89	211	0.001132000013	78
89	253	0.001636000037	78
89	327	1.000054033331	78
89	411	2.000054066501	78
89	453	2.000758066525	78
89	519	3.000054073352	78
89	584	4.000054091945	78
89	646	5.00005411727	78
89	708	6.000054145863	78
89	770	7.000054176139	78
89	832	8.000054207363	78
89	896	9.000054239163	78
89	962	10.000054271337	78
89	1025	11.000054303766	78
89	1088	12.000054336377	78
89	1150	13.000054369121	78
89	1212	14.000054401966	78
90	107	0.000104	78
90	169	0.000828	78
90	211	0.001132000013	78
90	253	0.001636000037	78
90	327	1.000054033331	78
90	411	2.000054066501	78
90	453	2.000758066525	78
90	519	3.000054073352	78
90	584	4.000054091945	78
90	646	5.00005411727	78
90	708	6.000054145863	78
90	770	7.000054176139	78
90	832	8.000054207363	78
90	896	9.000054239163	78
90	962	10.000054271337	78
90	1025	11.000054303766	78
90	1088	12.000054336377	78
90	1150	13.000054369121	78
90	1212	14.000054401966	78
91	107	0.000104	78
91	169	0.000828	78
91	211	0.001132000013	78
91	253	0.001636000037	78
91	327	1.000054033331	78
91	411	2.000054066501	78
91	453	2.000758066525	78
91	519	3.000054073352	78
91	584	4.000054091945	78
91	646	5.00005411727	78
91	708	6.000054145863	78
91	770	7.000054176139	78
91	832	8.000054207363	78
91	896	9.000054239163	78
91	962	10.000054271337	78
91	1025	11.000054303766	78
91	1088	12.000054336377	78
91	1150	13.000054369121	78
91	1212	14.000054401966	78
92	107	0.000104	78
92	169	0.000828	78
92	211	0.001132000013	78
92	253	0.001636000037	78
92	327	1.000054033331	78
92	411	2.000054066501	78
92	453	2.000758066525	78
92	519	3.000054073352	78
92	584	4.000054091945	78
92	646	5.00005411727	78
92	708	6.000054145863	78
92	770	7.000054176139	78
92	832	8.000054207363	78
92	896	9.000054239163	78
92	962	10.000054271337	78
92	1025	11.000054303766	78
92	1088	12.000054336377	78
92	1150	13.000054369121	78
92	1212	14.000054401966	78
93	107	0.000104	50
93	169	0.000828	50
93	211	0.001132000013	50
93	253	0.001636000037	50
93	327	1.000054033331	50
93	411	2.000054066501	50
93	453	2.000758066525	50
93	519	3.000054073352	50
93	584	4.000054091945	50
93	646	5.00005411727	50
93	708	6.000054145863	50
93	770	7.000054176139	50
93	832	8.000054207363	50
93	896	9.000054239163	50
93	962	10.000054271337	50
93	1025	11.000054303766	50
93	1088	12.000054336377	50
93	1150	13.000054369121	50
93	1212	14.000054401966	50
94	1210	14.000054401966	78
95	1210	14.000054401966	78
96	1211	14.000054401966	78
97	1211	14.000054401966	78
vector 98 mobilityDrones.quads[0].app[0] throughput:vector ETV
attr source throughput(packetReceived)
attr title "throughput, vector"
attr unit bps
vector 99 mobilityDrones.quads[1].app[0] throughput:vector ETV
attr source throughput(packetReceived)
attr title "throughput, vector"
attr unit bps
vector 100 mobilityDrones.quads[2].app[0] throughput:vector ETV
attr source throughput(packetReceived)
attr title "throughput, vector"
attr unit bps
vector 101 mobilityDrones.quads[3].app[0] throughput:vector ETV
attr source throughput(packetReceived)
attr title "throughput, vector"
attr unit bps
vector 102 mobilityDrones.sensors[0].app[0] throughput:vector ETV
attr source throughput(packetReceived)
attr title "throughput, vector"
attr unit bps
vector 103 mobilityDrones.sensors[1].app[0] throughput:vector ETV
attr source throughput(packetReceived)
attr title "throughput, vector"
attr unit bps
vector 104 mobilityDrones.sensors[2].app[0] throughput:vector ETV
attr source throughput(packetReceived)
attr title "throughput, vector"
attr unit bps
vector 105 mobilityDrones.sensors[3].app[0] throughput:vector ETV
attr source throughput(packetReceived)
attr title "throughput, vector"
attr unit bps
vector 106 mobilityDrones.sensors[4].app[0] throughput:vector ETV
attr source throughput(packetReceived)
attr title "throughput, vector"
attr unit bps
vector 107 mobilityDrones.sensors[5].app[0] throughput:vector ETV
attr source throughput(packetReceived)
attr title "throughput, vector"
attr unit bps
vector 108 mobilityDrones.sensors[6].app[0] throughput:vector ETV
attr source throughput(packetReceived)
attr title "throughput, vector"
attr unit bps
vector 109 mobilityDrones.sensors[7].app[0] throughput:vector ETV
attr source throughput(packetReceived)
attr title "throughput, vector"
attr unit bps
vector 110 mobilityDrones.groundStation.app[0] throughput:vector ETV
attr source throughput(packetReceived)
attr title "throughput, vector"
attr unit bps
98	2394	0.1	0
98	2394	0.2	0
98	2394	0.3	0
98	2394	0.4	0
98	2394	0.5	0
98	2394	0.6	0
98	2394	0.7	0
98	2394	0.8	0
98	2394	0.9	0
98	2394	1	0
98	2394	1.1	0
98	2394	1.2	0
98	2394	1.3	0
98	2394	1.4	0
98	2394	1.5	0
98	2394	1.6	0
98	2394	1.7	0
98	2394	1.8	0
98	2394	1.9	0
98	2394	2	0
98	2394	2.1	0
98	2394	2.2	0
98	2394	2.3	0
98	2394	2.4	0
98	2394	2.5	0
98	2394	2.6	0
98	2394	2.7	0
98	2394	2.8	0
98	2394	2.9	0
98	2394	3	0
98	2394	3.1	0
98	2394	3.2	0
98	2394	3.3	0
98	2394	3.4	0
98	2394	3.5	0
98	2394	3.6	0
98	2394	3.7	0
98	2394	3.8	0
98	2394	3.9	0
98	2394	4	0
98	2394	4.1	0
98	2394	4.2	0
98	2394	4.3	0
98	2394	4.4	0
98	2394	4.5	0
98	2394	4.6	0
98	2394	4.7	0
98	2394	4.8	0
98	2394	4.9	0
98	2394	5	0
98	2394	5.1	0
98	2394	5.2	0
98	2394	5.3	0
98	2394	5.4	0
98	2394	5.5	0
98	2394	5.6	0
98	2394	5.7	0
98	2394	5.8	0
98	2394	5.9	0
98	2394	6	0
98	2394	6.1	0
98	2394	6.2	0
98	2394	6.3	0
98	2394	6.4	0
98	2394	6.5	0
98	2394	6.6	0
98	2394	6.7	0
98	2394	6.8	0
98	2394	6.9	0
98	2394	7	0
98	2394	7.1	0
98	2394	7.2	0
98	2394	7.3	0
98	2394	7.4	0
98	2394	7.5	0
98	2394	7.6	0
98	2394	7.7	0
98	2394	7.8	0
98	2394	7.9	0
98	2394	8	0
98	2394	8.1	0
98	2394	8.2	0
98	2394	8.3	0
98	2394	8.4	0
98	2394	8.5	0
98	2394	8.6	0
98	2394	8.7	0
98	2394	8.8	0
98	2394	8.9	0
98	2394	9	0
98	2394	9.1	0
98	2394	9.2	0
98	2394	9.3	0
98	2394	9.4	0
98	2394	9.5	0
98	2394	9.6	0
98	2394	9.7	0
98	2394	9.8	0
98	2394	9.9	0
98	2394	10	0
98	2394	10.1	0
98	2394	10.2	0
98	2394	10.3	0
98	2394	10.4	0
98	2394	10.5	0
98	2394	10.6	0
98	2394	10.7	0
98	2394	10.8	0
98	2394	10.9	0
98	2394	11	0
98	2394	11.1	0
98	2394	11.2	0
98	2394	11.3	0
98	2394	11.4	0
98	2394	11.5	0
98	2394	11.6	0
98	2394	11.7	0
98	2394	11.8	0
98	2394	11.9	0
98	2394	12	0
98	2394	12.1	0
98	2394	12.2	0
98	2394	12.3	0
98	2394	12.4	0
98	2394	12.5	0
98	2394	12.6	0
98	2394	12.7	0
98	2394	12.8	0
98	2394	12.9	0
98	2394	13	0
98	2394	13.1	0
98	2394	13.2	0
98	2394	13.3	0
98	2394	13.4	0
98	2394	13.5	0
98	2394	13.6	0
98	2394	13.7	0
98	2394	13.8	0
98	2394	13.9	0
98	2394	14	0
98	2394	14.1	0
98	2394	14.2	0
98	2394	14.3	0
98	2394	14.4	0
98	2394	14.5	0
98	2394	14.6	0
98	2394	14.7	0
98	2394	14.8	0
98	2394	14.9	0
98	2394	15	0
98	2394	15.1	0
98	2394	15.2	0
98	2394	15.3	0
98	2394	15.4	0
98	2394	15.5	0
98	2394	15.6	0
98	2394	15.7	0
98	2394	15.8	0
98	2394	15.9	0
98	2394	16	0
98	2394	16.1	0
98	2394	16.2	0
98	2394	16.3	0
98	2394	16.4	0
98	2394	16.5	0
98	2394	16.6	0
98	2394	16.7	0
98	2394	16.8	0
98	2394	16.9	0
98	2394	17	0
98	2394	17.1	0
98	2394	17.2	0
98	2394	17.3	0
98	2394	17.4	0
98	2394	17.5	0
98	2394	17.6	0
98	2394	17.7	0
98	2394	17.8	0
98	2394	17.9	0
98	2394	18	0
98	2394	18.1	0
98	2394	18.2	0
98	2394	18.3	0
98	2394	18.4	0
98	2394	18.5	0
98	2394	18.6	0
98	2394	18.7	0
98	2394	18.8	0
98	2394	18.9	0
98	2394	19	0
98	2394	19.1	0
98	2394	19.2	0
98	2394	19.3	0
98	2394	19.4	0
98	2394	19.5	0
98	2394	19.6	0
98	2394	19.7	0
98	2394	19.8	0
98	2394	19.9	0
98	2394	20	0
98	2394	20.1	0
98	2394	20.2	0
98	2394	20.3	0
98	2394	20.4	0
98	2394	20.5	0
98	2394	20.6	0
98	2394	20.7	0
98	2394	20.8	0
98	2394	20.9	0
98	2394	21	0
98	2394	21.1	0
98	2394	21.2	0
98	2394	21.3	0
98	2394	21.4	0
98	2394	21.5	0
98	2394	21.6	0
98	2394	21.7	0
98	2394	21.8	0
98	2394	21.9	0
98	2394	22	0
98	2394	22.1	0
98	2394	22.2	0
98	2394	22.3	0
98	2394	22.4	0
98	2394	22.5	0
98	2394	22.6	0
98	2394	22.7	0
98	2394	22.8	0
98	2394	22.9	0
98	2394	23	0
98	2394	23.1	0
98	2394	23.2	0
98	2394	23.3	0
98	2394	23.4	0
98	2394	23.5	0
98	2394	23.6	0
98	2394	23.7	0
98	2394	23.8	0
98	2394	23.9	0
98	2394	24	0
98	2394	24.1	0
98	2394	24.2	0
98	2394	24.3	0
98	2394	24.4	0
98	2394	24.5	0
98	2394	24.6	0
98	2394	24.7	0
98	2394	24.8	0
98	2394	24.9	0
98	2394	25	0
98	2394	25.1	0
98	2394	25.2	0
98	2394	25.3	0
98	2394	25.4	0
98	2394	25.5	0
98	2394	25.6	0
98	2394	25.7	0
98	2394	25.8	0
98	2394	25.9	0
98	2394	26	0
98	2394	26.1	0
98	2394	26.2	0
98	2394	26.3	0
98	2394	26.4	0
98	2394	26.5	0
98	2394	26.6	0
98	2394	26.7	0
98	2394	26.8	0
98	2394	26.9	0
98	2394	27	0
98	2394	27.1	0
98	2394	27.2	0
98	2394	27.3	0
98	2394	27.4	0
98	2394	27.5	0
98	2394	27.6	0
98	2394	27.7	0
98	2394	27.8	0
98	2394	27.9	0
98	2394	28	0
98	2394	28.1	0
98	2394	28.2	0
98	2394	28.3	0
98	2394	28.4	0
98	2394	28.5	0
98	2394	28.6	0
98	2394	28.7	0
98	2394	28.8	0
98	2394	28.9	0
98	2394	29	0
98	2394	29.1	0
98	2394	29.2	0
98	2394	29.3	0
98	2394	29.4	0
98	2394	29.5	0
98	2394	29.6	0
98	2394	29.7	0
98	2394	29.8	0
98	2394	29.9	0
98	2394	30	0
98	2394	30.1	0
98	2394	30.2	0
98	2394	30.3	0
98	2394	30.4	0
98	2394	30.5	0
98	2394	30.6	0
98	2394	30.7	0
98	2394	30.8	0
98	2394	30.9	0
98	2394	31	0
98	2394	31.1	0
98	2394	31.2	0
98	2394	31.3	0
98	2394	31.4	0
98	2394	31.5	0
98	2394	31.6	0
98	2394	31.7	0
98	2394	31.8	0
98	2394	31.9	0
98	2394	32	0
98	2394	32.1	0
98	2394	32.2	0
98	2394	32.3	0
98	2394	32.4	0
98	2394	32.5	0
98	2394	32.6	0
98	2394	32.7	0
98	2394	32.8	0
98	2394	32.9	0
98	2394	33	0
98	2394	33.1	0
98	2394	33.2	0
98	2394	33.3	0
98	2394	33.4	0
98	2394	33.5	0
98	2394	33.6	0
98	2394	33.7	0
98	2394	33.8	0
98	2394	33.9	0
98	2394	34	0
98	2394	34.1	0
98	2394	34.2	0
98	2394	34.3	0
98	2394	34.4	0
98	2394	34.5	0
98	2394	34.6	0
98	2394	34.7	0
98	2394	34.8	0
98	2394	34.9	0
98	2394	35	0
98	2394	35.1	0
98	2394	35.2	0
98	2394	35.3	0
98	2394	35.4	0
98	2394	35.5	0
98	2394	35.6	0
98	2394	35.7	0
98	2394	35.8	0
98	2394	35.9	0
98	2394	36	0
98	2394	36.1	0
98	2394	36.2	0
98	2394	36.3	0
98	2394	36.4	0
98	2394	36.499634515139	0
99	2394	0.1	0
99	2394	0.2	0
99	2394	0.3	0
99	2394	0.4	0
99	2394	0.5	0
99	2394	0.6	0
99	2394	0.7	0
99	2394	0.8	0
99	2394	0.9	0
99	2394	1	0
99	2394	1.1	0
99	2394	1.2	0
99	2394	1.3	0
99	2394	1.4	0
99	2394	1.5	0
99	2394	1.6	0
99	2394	1.7	0
99	2394	1.8	0
99	2394	1.9	0
99	2394	2	0
99	2394	2.1	0
99	2394	2.2	0
99	2394	2.3	0
99	2394	2.4	0
99	2394	2.5	0
99	2394	2.6	0
99	2394	2.7	0
99	2394	2.8	0
99	2394	2.9	0
99	2394	3	0
99	2394	3.1	0
99	2394	3.2	0
99	2394	3.3	0
99	2394	3.4	0
99	2394	3.5	0
99	2394	3.6	0
99	2394	3.7	0
99	2394	3.8	0
99	2394	3.9	0
99	2394	4	0
99	2394	4.1	0
99	2394	4.2	0
99	2394	4.3	0
99	2394	4.4	0
99	2394	4.5	0
99	2394	4.6	0
99	2394	4.7	0
99	2394	4.8	0
99	2394	4.9	0
99	2394	5	0
99	2394	5.1	0
99	2394	5.2	0
99	2394	5.3	0
99	2394	5.4	0
99	2394	5.5	0
99	2394	5.6	0
99	2394	5.7	0
99	2394	5.8	0
99	2394	5.9	0
99	2394	6	0
99	2394	6.1	0
99	2394	6.2	0
99	2394	6.3	0
99	2394	6.4	0
99	2394	6.5	0
99	2394	6.6	0
99	2394	6.7	0
99	2394	6.8	0
99	2394	6.9	0
99	2394	7	0
99	2394	7.1	0
99	2394	7.2	0
99	2394	7.3	0
99	2394	7.4	0
99	2394	7.5	0
99	2394	7.6	0
99	2394	7.7	0
99	2394	7.8	0
99	2394	7.9	0
99	2394	8	0
99	2394	8.1	0
99	2394	8.2	0
99	2394	8.3	0
99	2394	8.4	0
99	2394	8.5	0
99	2394	8.6	0
99	2394	8.7	0
99	2394	8.8	0
99	2394	8.9	0
99	2394	9	0
99	2394	9.1	0
99	2394	9.2	0
99	2394	9.3	0
99	2394	9.4	0
99	2394	9.5	0
99	2394	9.6	0
99	2394	9.7	0
99	2394	9.8	0
99	2394	9.9	0
99	2394	10	0
99	2394	10.1	0
99	2394	10.2	0
99	2394	10.3	0
99	2394	10.4	0
99	2394	10.5	0
99	2394	10.6	0
99	2394	10.7	0
99	2394	10.8	0
99	2394	10.9	0
99	2394	11	0
99	2394	11.1	0
99	2394	11.2	0
99	2394	11.3	0
99	2394	11.4	0
99	2394	11.5	0
99	2394	11.6	0
99	2394	11.7	0
99	2394	11.8	0
99	2394	11.9	0
99	2394	12	0
99	2394	12.1	0
99	2394	12.2	0
99	2394	12.3	0
99	2394	12.4	0
99	2394	12.5	0
99	2394	12.6	0
99	2394	12.7	0
99	2394	12.8	0
99	2394	12.9	0
99	2394	13	0
99	2394	13.1	0
99	2394	13.2	0
99	2394	13.3	0
99	2394	13.4	0
99	2394	13.5	0
99	2394	13.6	0
99	2394	13.7	0
99	2394	13.8	0
99	2394	13.9	0
99	2394	14	0
99	2394	14.1	0
99	2394	14.2	0
99	2394	14.3	0
99	2394	14.4	0
99	2394	14.5	0
99	2394	14.6	0
99	2394	14.7	0
99	2394	14.8	0
99	2394	14.9	0
99	2394	15	0
99	2394	15.1	0
99	2394	15.2	0
99	2394	15.3	0
99	2394	15.4	0
99	2394	15.5	0
99	2394	15.6	0
99	2394	15.7	0
99	2394	15.8	0
99	2394	15.9	0
99	2394	16	0
99	2394	16.1	0
99	2394	16.2	0
99	2394	16.3	0
99	2394	16.4	0
99	2394	16.5	0
99	2394	16.6	0
99	2394	16.7	0
99	2394	16.8	0
99	2394	16.9	0
99	2394	17	0
99	2394	17.1	0
99	2394	17.2	0
99	2394	17.3	0
99	2394	17.4	0
99	2394	17.5	0
99	2394	17.6	0
99	2394	17.7	0
99	2394	17.8	0
99	2394	17.9	0
99	2394	18	0
99	2394	18.1	0
99	2394	18.2	0
99	2394	18.3	0
99	2394	18.4	0
99	2394	18.5	0
99	2394	18.6	0
99	2394	18.7	0
99	2394	18.8	0
99	2394	18.9	0
99	2394	19	0
99	2394	19.1	0
99	2394	19.2	0
99	2394	19.3	0
99	2394	19.4	0
99	2394	19.5	0
99	2394	19.6	0
99	2394	19.7	0
99	2394	19.8	0
99	2394	19.9	0
99	2394	20	0
99	2394	20.1	0
99	2394	20.2	0
99	2394	20.3	0
99	2394	20.4	0
99	2394	20.5	0
99	2394	20.6	0
99	2394	20.7	0
99	2394	20.8	0
99	2394	20.9	0
99	2394	21	0
99	2394	21.1	0
99	2394	21.2	0
99	2394	21.3	0
99	2394	21.4	0
99	2394	21.5	0
99	2394	21.6	0
99	2394	21.7	0
99	2394	21.8	0
99	2394	21.9	0
99	2394	22	0
99	2394	22.1	0
99	2394	22.2	0
99	2394	22.3	0
99	2394	22.4	0
99	2394	22.5	0
99	2394	22.6	0
99	2394	22.7	0
99	2394	22.8	0
99	2394	22.9	0
99	2394	23	0
99	2394	23.1	0
99	2394	23.2	0
99	2394	23.3	0
99	2394	23.4	0
99	2394	23.5	0
99	2394	23.6	0
99	2394	23.7	0
99	2394	23.8	0
99	2394	23.9	0
99	2394	24	0
99	2394	24.1	0
99	2394	24.2	0
99	2394	24.3	0
99	2394	24.4	0
99	2394	24.5	0
99	2394	24.6	0
99	2394	24.7	0
99	2394	24.8	0
99	2394	24.9	0
99	2394	25	0
99	2394	25.1	0
99	2394	25.2	0
99	2394	25.3	0
99	2394	25.4	0
99	2394	25.5	0
99	2394	25.6	0
99	2394	25.7	0
99	2394	25.8	0
99	2394	25.9	0
99	2394	26	0
99	2394	26.1	0
99	2394	26.2	0
99	2394	26.3	0
99	2394	26.4	0
99	2394	26.5	0
99	2394	26.6	0
99	2394	26.7	0
99	2394	26.8	0
99	2394	26.9	0
99	2394	27	0
99	2394	27.1	0
99	2394	27.2	0
99	2394	27.3	0
99	2394	27.4	0
99	2394	27.5	0
99	2394	27.6	0
99	2394	27.7	0
99	2394	27.8	0
99	2394	27.9	0
99	2394	28	0
99	2394	28.1	0
99	2394	28.2	0
99	2394	28.3	0
99	2394	28.4	0
99	2394	28.5	0
99	2394	28.6	0
99	2394	28.7	0
99	2394	28.8	0
99	2394	28.9	0
99	2394	29	0
99	2394	29.1	0
99	2394	29.2	0
99	2394	29.3	0
99	2394	29.4	0
99	2394	29.5	0
99	2394	29.6	0
99	2394	29.7	0
99	2394	29.8	0
99	2394	29.9	0
99	2394	30	0
99	2394	30.1	0
99	2394	30.2	0
99	2394	30.3	0
99	2394	30.4	0
99	2394	30.5	0
99	2394	30.6	0
99	2394	30.7	0
99	2394	30.8	0
99	2394	30.9	0
99	2394	31	0
99	2394	31.1	0
99	2394	31.2	0
99	2394	31.3	0
99	2394	31.4	0
99	2394	31.5	0
99	2394	31.6	0
99	2394	31.7	0
99	2394	31.8	0
99	2394	31.9	0
99	2394	32	0
99	2394	32.1	0
99	2394	32.2	0
99	2394	32.3	0
99	2394	32.4	0
99	2394	32.5	0
99	2394	32.6	0
99	2394	32.7	0
99	2394	32.8	0
99	2394	32.9	0
99	2394	33	0
99	2394	33.1	0
99	2394	33.2	0
99	2394	33.3	0
99	2394	33.4	0
99	2394	33.5	0
99	2394	33.6	0
99	2394	33.7	0
99	2394	33.8	0
99	2394	33.9	0
99	2394	34	0
99	2394	34.1	0
99	2394	34.2	0
99	2394	34.3	0
99	2394	34.4	0
99	2394	34.5	0
99	2394	34.6	0
99	2394	34.7	0
99	2394	34.8	0
99	2394	34.9	0
99	2394	35	0
99	2394	35.1	0
99	2394	35.2	0
99	2394	35.3	0
99	2394	35.4	0
99	2394	35.5	0
99	2394	35.6	0
99	2394	35.7	0
99	2394	35.8	0
99	2394	35.9	0
99	2394	36	0
99	2394	36.1	0
99	2394	36.2	0
99	2394	36.3	0
99	2394	36.4	0
99	2394	36.499634515139	0
100	2394	0.1	0
100	2394	0.2	0
100	2394	0.3	0
100	2394	0.4	0
100	2394	0.5	0
100	2394	0.6	0
100	2394	0.7	0
100	2394	0.8	0
100	2394	0.9	0
100	2394	1	0
100	2394	1.1	0
100	2394	1.2	0
100	2394	1.3	0
100	2394	1.4	0
100	2394	1.5	0
100	2394	1.6	0
100	2394	1.7	0
100	2394	1.8	0
100	2394	1.9	0
100	2394	2	0
100	2394	2.1	0
100	2394	2.2	0
100	2394	2.3	0
100	2394	2.4	0
100	2394	2.5	0
100	2394	2.6	0
100	2394	2.7	0
100	2394	2.8	0
100	2394	2.9	0
100	2394	3	0
100	2394	3.1	0
100	2394	3.2	0
100	2394	3.3	0
100	2394	3.4	0
100	2394	3.5	0
100	2394	3.6	0
100	2394	3.7	0
100	2394	3.8	0
100	2394	3.9	0
100	2394	4	0
100	2394	4.1	0
100	2394	4.2	0
100	2394	4.3	0
100	2394	4.4	0
100	2394	4.5	0
100	2394	4.6	0
100	2394	4.7	0
100	2394	4.8	0
100	2394	4.9	0
100	2394	5	0
100	2394	5.1	0
100	2394	5.2	0
100	2394	5.3	0
100	2394	5.4	0
100	2394	5.5	0
100	2394	5.6	0
100	2394	5.7	0
100	2394	5.8	0
100	2394	5.9	0
100	2394	6	0
100	2394	6.1	0
100	2394	6.2	0
100	2394	6.3	0
100	2394	6.4	0
100	2394	6.5	0
100	2394	6.6	0
100	2394	6.7	0
100	2394	6.8	0
100	2394	6.9	0
100	2394	7	0
100	2394	7.1	0
100	2394	7.2	0
100	2394	7.3	0
100	2394	7.4	0
100	2394	7.5	0
100	2394	7.6	0
100	2394	7.7	0
100	2394	7.8	0
100	2394	7.9	0
100	2394	8	0
100	2394	8.1	0
100	2394	8.2	0
100	2394	8.3	0
100	2394	8.4	0
100	2394	8.5	0
100	2394	8.6	0
100	2394	8.7	0
100	2394	8.8	0
100	2394	8.9	0
100	2394	9	0
100	2394	9.1	0
100	2394	9.2	0
100	2394	9.3	0
100	2394	9.4	0
100	2394	9.5	0
100	2394	9.6	0
100	2394	9.7	0
100	2394	9.8	0
100	2394	9.9	0
100	2394	10	0
100	2394	10.1	0
100	2394	10.2	0
100	2394	10.3	0
100	2394	10.4	0
100	2394	10.5	0
100	2394	10.6	0
100	2394	10.7	0
100	2394	10.8	0
100	2394	10.9	0
100	2394	11	0
100	2394	11.1	0
100	2394	11.2	0
100	2394	11.3	0
100	2394	11.4	0
100	2394	11.5	0
100	2394	11.6	0
100	2394	11.7	0
100	2394	11.8	0
100	2394	11.9	0
100	2394	12	0
100	2394	12.1	0
100	2394	12.2	0
100	2394	12.3	0
100	2394	12.4	0
100	2394	12.5	0
100	2394	12.6	0
100	2394	12.7	0
100	2394	12.8	0
100	2394	12.9	0
100	2394	13	0
100	2394	13.1	0
100	2394	13.2	0
100	2394	13.3	0
100	2394	13.4	0
100	2394	13.5	0
100	2394	13.6	0
100	2394	13.7	0
100	2394	13.8	0
100	2394	13.9	0
100	2394	14	0
100	2394	14.1	0
100	2394	14.2	0
100	2394	14.3	0
100	2394	14.4	0
100	2394	14.5	0
100	2394	14.6	0
100	2394	14.7	0
100	2394	14.8	0
100	2394	14.9	0
100	2394	15	0
100	2394	15.1	0
100	2394	15.2	0
100	2394	15.3	0
100	2394	15.4	0
100	2394	15.5	0
100	2394	15.6	0
100	2394	15.7	0
100	2394	15.8	0
100	2394	15.9	0
100	2394	16	0
100	2394	16.1	0
100	2394	16.2	0
100	2394	16.3	0
100	2394	16.4	0
100	2394	16.5	0
100	2394	16.6	0
100	2394	16.7	0
100	2394	16.8	0
100	2394	16.9	0
100	2394	17	0
100	2394	17.1	0
100	2394	17.2	0
100	2394	17.3	0
100	2394	17.4	0
100	2394	17.5	0
100	2394	17.6	0
100	2394	17.7	0
100	2394	17.8	0
100	2394	17.9	0
100	2394	18	0
100	2394	18.1	0
100	2394	18.2	0
100	2394	18.3	0
100	2394	18.4	0
100	2394	18.5	0
100	2394	18.6	0
100	2394	18.7	0
100	2394	18.8	0
100	2394	18.9	0
100	2394	19	0
100	2394	19.1	0
100	2394	19.2	0
100	2394	19.3	0
100	2394	19.4	0
100	2394	19.5	0
100	2394	19.6	0
100	2394	19.7	0
100	2394	19.8	0
100	2394	19.9	0
100	2394	20	0
100	2394	20.1	0
100	2394	20.2	0
100	2394	20.3	0
100	2394	20.4	0
100	2394	20.5	0
100	2394	20.6	0
100	2394	20.7	0
100	2394	20.8	0
100	2394	20.9	0
100	2394	21	0
100	2394	21.1	0
100	2394	21.2	0
100	2394	21.3	0
100	2394	21.4	0
100	2394	21.5	0
100	2394	21.6	0
100	2394	21.7	0
100	2394	21.8	0
100	2394	21.9	0
100	2394	22	0
100	2394	22.1	0
100	2394	22.2	0
100	2394	22.3	0
100	2394	22.4	0
100	2394	22.5	0
100	2394	22.6	0
100	2394	22.7	0
100	2394	22.8	0
100	2394	22.9	0
100	2394	23	0
100	2394	23.1	0
100	2394	23.2	0
100	2394	23.3	0
100	2394	23.4	0
100	2394	23.5	0
100	2394	23.6	0
100	2394	23.7	0
100	2394	23.8	0
100	2394	23.9	0
100	2394	24	0
100	2394	24.1	0
100	2394	24.2	0
100	2394	24.3	0
100	2394	24.4	0
100	2394	24.5	0
100	2394	24.6	0
100	2394	24.7	0
100	2394	24.8	0
100	2394	24.9	0
100	2394	25	0
100	2394	25.1	0
100	2394	25.2	0
100	2394	25.3	0
100	2394	25.4	0
100	2394	25.5	0
100	2394	25.6	0
100	2394	25.7	0
100	2394	25.8	0
100	2394	25.9	0
100	2394	26	0
100	2394	26.1	0
100	2394	26.2	0
100	2394	26.3	0
100	2394	26.4	0
100	2394	26.5	0
100	2394	26.6	0
100	2394	26.7	0
100	2394	26.8	0
100	2394	26.9	0
100	2394	27	0
100	2394	27.1	0
100	2394	27.2	0
100	2394	27.3	0
100	2394	27.4	0
100	2394	27.5	0
100	2394	27.6	0
100	2394	27.7	0
100	2394	27.8	0
100	2394	27.9	0
100	2394	28	0
100	2394	28.1	0
100	2394	28.2	0
100	2394	28.3	0
100	2394	28.4	0
100	2394	28.5	0
100	2394	28.6	0
100	2394	28.7	0
100	2394	28.8	0
100	2394	28.9	0
100	2394	29	0
100	2394	29.1	0
100	2394	29.2	0
100	2394	29.3	0
100	2394	29.4	0
100	2394	29.5	0
100	2394	29.6	0
100	2394	29.7	0
100	2394	29.8	0
100	2394	29.9	0
100	2394	30	0
100	2394	30.1	0
100	2394	30.2	0
100	2394	30.3	0
100	2394	30.4	0
100	2394	30.5	0
100	2394	30.6	0
100	2394	30.7	0
100	2394	30.8	0
100	2394	30.9	0
100	2394	31	0
100	2394	31.1	0
100	2394	31.2	0
100	2394	31.3	0
100	2394	31.4	0
100	2394	31.5	0
100	2394	31.6	0
100	2394	31.7	0
100	2394	31.8	0
100	2394	31.9	0
100	2394	32	0
100	2394	32.1	0
100	2394	32.2	0
100	2394	32.3	0
100	2394	32.4	0
100	2394	32.5	0
100	2394	32.6	0
100	2394	32.7	0
100	2394	32.8	0
100	2394	32.9	0
100	2394	33	0
100	2394	33.1	0
100	2394	33.2	0
100	2394	33.3	0
100	2394	33.4	0
100	2394	33.5	0
100	2394	33.6	0
100	2394	33.7	0
100	2394	33.8	0
100	2394	33.9	0
100	2394	34	0
100	2394	34.1	0
100	2394	34.2	0
100	2394	34.3	0
100	2394	34.4	0
100	2394	34.5	0
100	2394	34.6	0
100	2394	34.7	0
100	2394	34.8	0
100	2394	34.9	0
100	2394	35	0
100	2394	35.1	0
100	2394	35.2	0
100	2394	35.3	0
100	2394	35.4	0
100	2394	35.5	0
100	2394	35.6	0
100	2394	35.7	0
100	2394	35.8	0
100	2394	35.9	0
100	2394	36	0
100	2394	36.1	0
100	2394	36.2	0
100	2394	36.3	0
100	2394	36.4	0
100	2394	36.499634515139	0
101	2394	0.1	0
101	2394	0.2	0
101	2394	0.3	0
101	2394	0.4	0
101	2394	0.5	0
101	2394	0.6	0
101	2394	0.7	0
101	2394	0.8	0
101	2394	0.9	0
101	2394	1	0
101	2394	1.1	0
101	2394	1.2	0
101	2394	1.3	0
101	2394	1.4	0
101	2394	1.5	0
101	2394	1.6	0
101	2394	1.7	0
101	2394	1.8	0
101	2394	1.9	0
101	2394	2	0
101	2394	2.1	0
101	2394	2.2	0
101	2394	2.3	0
101	2394	2.4	0
101	2394	2.5	0
101	2394	2.6	0
101	2394	2.7	0
101	2394	2.8	0
101	2394	2.9	0
101	2394	3	0
101	2394	3.1	0
101	2394	3.2	0
101	2394	3.3	0
101	2394	3.4	0
101	2394	3.5	0
101	2394	3.6	0
101	2394	3.7	0
101	2394	3.8	0
101	2394	3.9	0
101	2394	4	0
101	2394	4.1	0
101	2394	4.2	0
101	2394	4.3	0
101	2394	4.4	0
101	2394	4.5	0
101	2394	4.6	0
101	2394	4.7	0
101	2394	4.8	0
101	2394	4.9	0
101	2394	5	0
101	2394	5.1	0
101	2394	5.2	0
101	2394	5.3	0
101	2394	5.4	0
101	2394	5.5	0
101	2394	5.6	0
101	2394	5.7	0
101	2394	5.8	0
101	2394	5.9	0
101	2394	6	0
101	2394	6.1	0
101	2394	6.2	0
[...]
107	2394	18	0
107	2394	18.1	0
107	2394	18.2	0
107	2394	18.3	0
107	2394	18.4	0
107	2394	18.5	0
107	2394	18.6	0
107	2394	18.7	0
107	2394	18.8	0
107	2394	18.9	0
107	2394	19	0
107	2394	19.1	0
107	2394	19.2	0
107	2394	19.3	0
107	2394	19.4	0
107	2394	19.5	0
107	2394	19.6	0
107	2394	19.7	0
107	2394	19.8	0
107	2394	19.9	0
107	2394	20	0
107	2394	20.1	0
107	2394	20.2	0
107	2394	20.3	0
107	2394	20.4	0
107	2394	20.5	0
107	2394	20.6	0
107	2394	20.7	0
107	2394	20.8	0
107	2394	20.9	0
107	2394	21	0
107	2394	21.1	0
107	2394	21.2	0
107	2394	21.3	0
107	2394	21.4	0
107	2394	21.5	0
107	2394	21.6	0
107	2394	21.7	0
107	2394	21.8	0
107	2394	21.9	0
107	2394	22	0
107	2394	22.1	0
107	2394	22.2	0
107	2394	22.3	0
107	2394	22.4	0
107	2394	22.5	0
107	2394	22.6	0
107	2394	22.7	0
107	2394	22.8	0
107	2394	22.9	0
107	2394	23	0
107	2394	23.1	0
107	2394	23.2	0
107	2394	23.3	0
107	2394	23.4	0
107	2394	23.5	0
107	2394	23.6	0
107	2394	23.7	0
107	2394	23.8	0
107	2394	23.9	0
107	2394	24	0
107	2394	24.1	0
107	2394	24.2	0
107	2394	24.3	0
107	2394	24.4	0
107	2394	24.5	0
107	2394	24.6	0
107	2394	24.7	0
107	2394	24.8	0
107	2394	24.9	0
107	2394	25	0
107	2394	25.1	0
107	2394	25.2	0
107	2394	25.3	0
107	2394	25.4	0
107	2394	25.5	0
107	2394	25.6	0
107	2394	25.7	0
107	2394	25.8	0
107	2394	25.9	0
107	2394	26	0
107	2394	26.1	0
107	2394	26.2	0
107	2394	26.3	0
107	2394	26.4	0
107	2394	26.5	0
107	2394	26.6	0
107	2394	26.7	0
107	2394	26.8	0
107	2394	26.9	0
107	2394	27	0
107	2394	27.1	0
107	2394	27.2	0
107	2394	27.3	0
107	2394	27.4	0
107	2394	27.5	0
107	2394	27.6	0
107	2394	27.7	0
107	2394	27.8	0
107	2394	27.9	0
107	2394	28	0
107	2394	28.1	0
107	2394	28.2	0
107	2394	28.3	0
107	2394	28.4	0
107	2394	28.5	0
107	2394	28.6	0
107	2394	28.7	0
107	2394	28.8	0
107	2394	28.9	0
107	2394	29	0
107	2394	29.1	0
107	2394	29.2	0
107	2394	29.3	0
107	2394	29.4	0
107	2394	29.5	0
107	2394	29.6	0
107	2394	29.7	0
107	2394	29.8	0
107	2394	29.9	0
107	2394	30	0
107	2394	30.1	0
107	2394	30.2	0
107	2394	30.3	0
107	2394	30.4	0
107	2394	30.5	0
107	2394	30.6	0
107	2394	30.7	0
107	2394	30.8	0
107	2394	30.9	0
107	2394	31	0
107	2394	31.1	0
107	2394	31.2	0
107	2394	31.3	0
107	2394	31.4	0
107	2394	31.5	0
107	2394	31.6	0
107	2394	31.7	0
107	2394	31.8	0
107	2394	31.9	0
107	2394	32	0
107	2394	32.1	0
107	2394	32.2	0
107	2394	32.3	0
107	2394	32.4	0
107	2394	32.5	0
107	2394	32.6	0
107	2394	32.7	0
107	2394	32.8	0
107	2394	32.9	0
107	2394	33	0
107	2394	33.1	0
107	2394	33.2	0
107	2394	33.3	0
107	2394	33.4	0
107	2394	33.5	0
107	2394	33.6	0
107	2394	33.7	0
107	2394	33.8	0
107	2394	33.9	0
107	2394	34	0
107	2394	34.1	0
107	2394	34.2	0
107	2394	34.3	0
107	2394	34.4	0
107	2394	34.5	0
107	2394	34.6	0
107	2394	34.7	0
107	2394	34.8	0
107	2394	34.9	0
107	2394	35	0
107	2394	35.1	0
107	2394	35.2	0
107	2394	35.3	0
107	2394	35.4	0
107	2394	35.5	0
107	2394	35.6	0
107	2394	35.7	0
107	2394	35.8	0
107	2394	35.9	0
107	2394	36	0
107	2394	36.1	0
107	2394	36.2	0
107	2394	36.3	0
107	2394	36.4	0
107	2394	36.499634515139	0
108	2394	0.1	0
108	2394	0.2	0
108	2394	0.3	0
108	2394	0.4	0
108	2394	0.5	0
108	2394	0.6	0
108	2394	0.7	0
108	2394	0.8	0
108	2394	0.9	0
108	2394	1	0
108	2394	1.1	0
108	2394	1.2	0
108	2394	1.3	0
108	2394	1.4	0
108	2394	1.5	0
108	2394	1.6	0
108	2394	1.7	0
108	2394	1.8	0
108	2394	1.9	0
108	2394	2	0
108	2394	2.1	0
108	2394	2.2	0
108	2394	2.3	0
108	2394	2.4	0
108	2394	2.5	0
108	2394	2.6	0
108	2394	2.7	0
108	2394	2.8	0
108	2394	2.9	0
108	2394	3	0
108	2394	3.1	0
108	2394	3.2	0
108	2394	3.3	0
108	2394	3.4	0
108	2394	3.5	0
108	2394	3.6	0
108	2394	3.7	0
108	2394	3.8	0
108	2394	3.9	0
108	2394	4	0
108	2394	4.1	0
108	2394	4.2	0
108	2394	4.3	0
108	2394	4.4	0
108	2394	4.5	0
108	2394	4.6	0
108	2394	4.7	0
108	2394	4.8	0
108	2394	4.9	0
108	2394	5	0
108	2394	5.1	0
108	2394	5.2	0
108	2394	5.3	0
108	2394	5.4	0
108	2394	5.5	0
108	2394	5.6	0
108	2394	5.7	0
108	2394	5.8	0
108	2394	5.9	0
108	2394	6	0
108	2394	6.1	0
108	2394	6.2	0
108	2394	6.3	0
108	2394	6.4	0
108	2394	6.5	0
108	2394	6.6	0
108	2394	6.7	0
108	2394	6.8	0
108	2394	6.9	0
108	2394	7	0
108	2394	7.1	0
108	2394	7.2	0
108	2394	7.3	0
108	2394	7.4	0
108	2394	7.5	0
108	2394	7.6	0
108	2394	7.7	0
108	2394	7.8	0
108	2394	7.9	0
108	2394	8	0
108	2394	8.1	0
108	2394	8.2	0
108	2394	8.3	0
108	2394	8.4	0
108	2394	8.5	0
108	2394	8.6	0
108	2394	8.7	0
108	2394	8.8	0
108	2394	8.9	0
108	2394	9	0
108	2394	9.1	0
108	2394	9.2	0
108	2394	9.3	0
108	2394	9.4	0
108	2394	9.5	0
108	2394	9.6	0
108	2394	9.7	0
108	2394	9.8	0
108	2394	9.9	0
108	2394	10	0
108	2394	10.1	0
108	2394	10.2	0
108	2394	10.3	0
108	2394	10.4	0
108	2394	10.5	0
108	2394	10.6	0
108	2394	10.7	0
108	2394	10.8	0
108	2394	10.9	0
108	2394	11	0
108	2394	11.1	0
108	2394	11.2	0
108	2394	11.3	0
108	2394	11.4	0
108	2394	11.5	0
108	2394	11.6	0
108	2394	11.7	0
108	2394	11.8	0
108	2394	11.9	0
108	2394	12	0
108	2394	12.1	0
108	2394	12.2	0
108	2394	12.3	0
108	2394	12.4	0
108	2394	12.5	0
108	2394	12.6	0
108	2394	12.7	0
108	2394	12.8	0
108	2394	12.9	0
108	2394	13	0
108	2394	13.1	0
108	2394	13.2	0
108	2394	13.3	0
108	2394	13.4	0
108	2394	13.5	0
108	2394	13.6	0
108	2394	13.7	0
108	2394	13.8	0
108	2394	13.9	0
108	2394	14	0
108	2394	14.1	0
108	2394	14.2	0
108	2394	14.3	0
108	2394	14.4	0
108	2394	14.5	0
108	2394	14.6	0
108	2394	14.7	0
108	2394	14.8	0
108	2394	14.9	0
108	2394	15	0
108	2394	15.1	0
108	2394	15.2	0
108	2394	15.3	0
108	2394	15.4	0
108	2394	15.5	0
108	2394	15.6	0
108	2394	15.7	0
108	2394	15.8	0
108	2394	15.9	0
108	2394	16	0
108	2394	16.1	0
108	2394	16.2	0
108	2394	16.3	0
108	2394	16.4	0
108	2394	16.5	0
108	2394	16.6	0
108	2394	16.7	0
108	2394	16.8	0
108	2394	16.9	0
108	2394	17	0
108	2394	17.1	0
108	2394	17.2	0
108	2394	17.3	0
108	2394	17.4	0
108	2394	17.5	0
108	2394	17.6	0
108	2394	17.7	0
108	2394	17.8	0
108	2394	17.9	0
108	2394	18	0
108	2394	18.1	0
108	2394	18.2	0
108	2394	18.3	0
108	2394	18.4	0
108	2394	18.5	0
108	2394	18.6	0
108	2394	18.7	0
108	2394	18.8	0
108	2394	18.9	0
108	2394	19	0
108	2394	19.1	0
108	2394	19.2	0
108	2394	19.3	0
108	2394	19.4	0
108	2394	19.5	0
108	2394	19.6	0
108	2394	19.7	0
108	2394	19.8	0
108	2394	19.9	0
108	2394	20	0
108	2394	20.1	0
108	2394	20.2	0
108	2394	20.3	0
108	2394	20.4	0
108	2394	20.5	0
108	2394	20.6	0
108	2394	20.7	0
108	2394	20.8	0
108	2394	20.9	0
108	2394	21	0
108	2394	21.1	0
108	2394	21.2	0
108	2394	21.3	0
108	2394	21.4	0
108	2394	21.5	0
108	2394	21.6	0
108	2394	21.7	0
108	2394	21.8	0
108	2394	21.9	0
108	2394	22	0
108	2394	22.1	0
108	2394	22.2	0
108	2394	22.3	0
108	2394	22.4	0
108	2394	22.5	0
108	2394	22.6	0
108	2394	22.7	0
108	2394	22.8	0
108	2394	22.9	0
108	2394	23	0
108	2394	23.1	0
108	2394	23.2	0
108	2394	23.3	0
108	2394	23.4	0
108	2394	23.5	0
108	2394	23.6	0
108	2394	23.7	0
108	2394	23.8	0
108	2394	23.9	0
108	2394	24	0
108	2394	24.1	0
108	2394	24.2	0
108	2394	24.3	0
108	2394	24.4	0
108	2394	24.5	0
108	2394	24.6	0
108	2394	24.7	0
108	2394	24.8	0
108	2394	24.9	0
108	2394	25	0
108	2394	25.1	0
108	2394	25.2	0
108	2394	25.3	0
108	2394	25.4	0
108	2394	25.5	0
108	2394	25.6	0
108	2394	25.7	0
108	2394	25.8	0
108	2394	25.9	0
108	2394	26	0
108	2394	26.1	0
108	2394	26.2	0
108	2394	26.3	0
108	2394	26.4	0
108	2394	26.5	0
108	2394	26.6	0
108	2394	26.7	0
108	2394	26.8	0
108	2394	26.9	0
108	2394	27	0
108	2394	27.1	0
108	2394	27.2	0
108	2394	27.3	0
108	2394	27.4	0
108	2394	27.5	0
108	2394	27.6	0
108	2394	27.7	0
108	2394	27.8	0
108	2394	27.9	0
108	2394	28	0
108	2394	28.1	0
108	2394	28.2	0
108	2394	28.3	0
108	2394	28.4	0
108	2394	28.5	0
108	2394	28.6	0
108	2394	28.7	0
108	2394	28.8	0
108	2394	28.9	0
108	2394	29	0
108	2394	29.1	0
108	2394	29.2	0
108	2394	29.3	0
108	2394	29.4	0
108	2394	29.5	0
108	2394	29.6	0
108	2394	29.7	0
108	2394	29.8	0
108	2394	29.9	0
108	2394	30	0
108	2394	30.1	0
108	2394	30.2	0
108	2394	30.3	0
108	2394	30.4	0
108	2394	30.5	0
108	2394	30.6	0
108	2394	30.7	0
108	2394	30.8	0
108	2394	30.9	0
108	2394	31	0
108	2394	31.1	0
108	2394	31.2	0
108	2394	31.3	0
108	2394	31.4	0
108	2394	31.5	0
108	2394	31.6	0
108	2394	31.7	0
108	2394	31.8	0
108	2394	31.9	0
108	2394	32	0
108	2394	32.1	0
108	2394	32.2	0
108	2394	32.3	0
108	2394	32.4	0
108	2394	32.5	0
108	2394	32.6	0
108	2394	32.7	0
108	2394	32.8	0
108	2394	32.9	0
108	2394	33	0
108	2394	33.1	0
108	2394	33.2	0
108	2394	33.3	0
108	2394	33.4	0
108	2394	33.5	0
108	2394	33.6	0
108	2394	33.7	0
108	2394	33.8	0
108	2394	33.9	0
108	2394	34	0
108	2394	34.1	0
108	2394	34.2	0
108	2394	34.3	0
108	2394	34.4	0
108	2394	34.5	0
108	2394	34.6	0
108	2394	34.7	0
108	2394	34.8	0
108	2394	34.9	0
108	2394	35	0
108	2394	35.1	0
108	2394	35.2	0
108	2394	35.3	0
108	2394	35.4	0
108	2394	35.5	0
108	2394	35.6	0
108	2394	35.7	0
108	2394	35.8	0
108	2394	35.9	0
108	2394	36	0
108	2394	36.1	0
108	2394	36.2	0
108	2394	36.3	0
108	2394	36.4	0
108	2394	36.499634515139	0
109	2394	0.1	0
109	2394	0.2	0
109	2394	0.3	0
109	2394	0.4	0
109	2394	0.5	0
109	2394	0.6	0
109	2394	0.7	0
109	2394	0.8	0
109	2394	0.9	0
109	2394	1	0
109	2394	1.1	0
109	2394	1.2	0
109	2394	1.3	0
109	2394	1.4	0
109	2394	1.5	0
109	2394	1.6	0
109	2394	1.7	0
109	2394	1.8	0
109	2394	1.9	0
109	2394	2	0
109	2394	2.1	0
109	2394	2.2	0
109	2394	2.3	0
109	2394	2.4	0
109	2394	2.5	0
109	2394	2.6	0
109	2394	2.7	0
109	2394	2.8	0
109	2394	2.9	0
109	2394	3	0
109	2394	3.1	0
109	2394	3.2	0
109	2394	3.3	0
109	2394	3.4	0
109	2394	3.5	0
109	2394	3.6	0
109	2394	3.7	0
109	2394	3.8	0
109	2394	3.9	0
109	2394	4	0
109	2394	4.1	0
109	2394	4.2	0
109	2394	4.3	0
109	2394	4.4	0
109	2394	4.5	0
109	2394	4.6	0
109	2394	4.7	0
109	2394	4.8	0
109	2394	4.9	0
109	2394	5	0
109	2394	5.1	0
109	2394	5.2	0
109	2394	5.3	0
109	2394	5.4	0
109	2394	5.5	0
109	2394	5.6	0
109	2394	5.7	0
109	2394	5.8	0
109	2394	5.9	0
109	2394	6	0
109	2394	6.1	0
109	2394	6.2	0
109	2394	6.3	0
109	2394	6.4	0
109	2394	6.5	0
109	2394	6.6	0
109	2394	6.7	0
109	2394	6.8	0
109	2394	6.9	0
109	2394	7	0
109	2394	7.1	0
109	2394	7.2	0
109	2394	7.3	0
109	2394	7.4	0
109	2394	7.5	0
109	2394	7.6	0
109	2394	7.7	0
109	2394	7.8	0
109	2394	7.9	0
109	2394	8	0
109	2394	8.1	0
109	2394	8.2	0
109	2394	8.3	0
109	2394	8.4	0
109	2394	8.5	0
109	2394	8.6	0
109	2394	8.7	0
109	2394	8.8	0
109	2394	8.9	0
109	2394	9	0
109	2394	9.1	0
109	2394	9.2	0
109	2394	9.3	0
109	2394	9.4	0
109	2394	9.5	0
109	2394	9.6	0
109	2394	9.7	0
109	2394	9.8	0
109	2394	9.9	0
109	2394	10	0
109	2394	10.1	0
109	2394	10.2	0
109	2394	10.3	0
109	2394	10.4	0
109	2394	10.5	0
109	2394	10.6	0
109	2394	10.7	0
109	2394	10.8	0
109	2394	10.9	0
109	2394	11	0
109	2394	11.1	0
109	2394	11.2	0
109	2394	11.3	0
109	2394	11.4	0
109	2394	11.5	0
109	2394	11.6	0
109	2394	11.7	0
109	2394	11.8	0
109	2394	11.9	0
109	2394	12	0
109	2394	12.1	0
109	2394	12.2	0
109	2394	12.3	0
109	2394	12.4	0
109	2394	12.5	0
109	2394	12.6	0
109	2394	12.7	0
109	2394	12.8	0
109	2394	12.9	0
109	2394	13	0
109	2394	13.1	0
109	2394	13.2	0
109	2394	13.3	0
109	2394	13.4	0
109	2394	13.5	0
109	2394	13.6	0
109	2394	13.7	0
109	2394	13.8	0
109	2394	13.9	0
109	2394	14	0
109	2394	14.1	0
109	2394	14.2	0
109	2394	14.3	0
109	2394	14.4	0
109	2394	14.5	0
109	2394	14.6	0
109	2394	14.7	0
109	2394	14.8	0
109	2394	14.9	0
109	2394	15	0
109	2394	15.1	0
109	2394	15.2	0
109	2394	15.3	0
109	2394	15.4	0
109	2394	15.5	0
109	2394	15.6	0
109	2394	15.7	0
109	2394	15.8	0
109	2394	15.9	0
109	2394	16	0
109	2394	16.1	0
109	2394	16.2	0
109	2394	16.3	0
109	2394	16.4	0
109	2394	16.5	0
109	2394	16.6	0
109	2394	16.7	0
109	2394	16.8	0
109	2394	16.9	0
109	2394	17	0
109	2394	17.1	0
109	2394	17.2	0
109	2394	17.3	0
109	2394	17.4	0
109	2394	17.5	0
109	2394	17.6	0
109	2394	17.7	0
109	2394	17.8	0
109	2394	17.9	0
109	2394	18	0
109	2394	18.1	0
109	2394	18.2	0
109	2394	18.3	0
109	2394	18.4	0
109	2394	18.5	0
109	2394	18.6	0
109	2394	18.7	0
109	2394	18.8	0
109	2394	18.9	0
109	2394	19	0
109	2394	19.1	0
109	2394	19.2	0
109	2394	19.3	0
109	2394	19.4	0
109	2394	19.5	0
109	2394	19.6	0
109	2394	19.7	0
109	2394	19.8	0
109	2394	19.9	0
109	2394	20	0
109	2394	20.1	0
109	2394	20.2	0
109	2394	20.3	0
109	2394	20.4	0
109	2394	20.5	0
109	2394	20.6	0
109	2394	20.7	0
109	2394	20.8	0
109	2394	20.9	0
109	2394	21	0
109	2394	21.1	0
109	2394	21.2	0
109	2394	21.3	0
109	2394	21.4	0
109	2394	21.5	0
109	2394	21.6	0
109	2394	21.7	0
109	2394	21.8	0
109	2394	21.9	0
109	2394	22	0
109	2394	22.1	0
109	2394	22.2	0
109	2394	22.3	0
109	2394	22.4	0
109	2394	22.5	0
109	2394	22.6	0
109	2394	22.7	0
109	2394	22.8	0
109	2394	22.9	0
109	2394	23	0
109	2394	23.1	0
109	2394	23.2	0
109	2394	23.3	0
109	2394	23.4	0
109	2394	23.5	0
109	2394	23.6	0
109	2394	23.7	0
109	2394	23.8	0
109	2394	23.9	0
109	2394	24	0
109	2394	24.1	0
109	2394	24.2	0
109	2394	24.3	0
109	2394	24.4	0
109	2394	24.5	0
109	2394	24.6	0
109	2394	24.7	0
109	2394	24.8	0
109	2394	24.9	0
109	2394	25	0
109	2394	25.1	0
109	2394	25.2	0
109	2394	25.3	0
109	2394	25.4	0
109	2394	25.5	0
109	2394	25.6	0
109	2394	25.7	0
109	2394	25.8	0
109	2394	25.9	0
109	2394	26	0
109	2394	26.1	0
109	2394	26.2	0
109	2394	26.3	0
109	2394	26.4	0
109	2394	26.5	0
109	2394	26.6	0
109	2394	26.7	0
109	2394	26.8	0
109	2394	26.9	0
109	2394	27	0
109	2394	27.1	0
109	2394	27.2	0
109	2394	27.3	0
109	2394	27.4	0
109	2394	27.5	0
109	2394	27.6	0
109	2394	27.7	0
109	2394	27.8	0
109	2394	27.9	0
109	2394	28	0
109	2394	28.1	0
109	2394	28.2	0
109	2394	28.3	0
109	2394	28.4	0
109	2394	28.5	0
109	2394	28.6	0
109	2394	28.7	0
109	2394	28.8	0
109	2394	28.9	0
109	2394	29	0
109	2394	29.1	0
109	2394	29.2	0
109	2394	29.3	0
109	2394	29.4	0
109	2394	29.5	0
109	2394	29.6	0
109	2394	29.7	0
109	2394	29.8	0
109	2394	29.9	0
109	2394	30	0
109	2394	30.1	0
109	2394	30.2	0
109	2394	30.3	0
109	2394	30.4	0
109	2394	30.5	0
109	2394	30.6	0
109	2394	30.7	0
109	2394	30.8	0
109	2394	30.9	0
109	2394	31	0
109	2394	31.1	0
109	2394	31.2	0
109	2394	31.3	0
109	2394	31.4	0
109	2394	31.5	0
109	2394	31.6	0
109	2394	31.7	0
109	2394	31.8	0
109	2394	31.9	0
109	2394	32	0
109	2394	32.1	0
109	2394	32.2	0
109	2394	32.3	0
109	2394	32.4	0
109	2394	32.5	0
109	2394	32.6	0
109	2394	32.7	0
109	2394	32.8	0
109	2394	32.9	0
109	2394	33	0
109	2394	33.1	0
109	2394	33.2	0
109	2394	33.3	0
109	2394	33.4	0
109	2394	33.5	0
109	2394	33.6	0
109	2394	33.7	0
109	2394	33.8	0
109	2394	33.9	0
109	2394	34	0
109	2394	34.1	0
109	2394	34.2	0
109	2394	34.3	0
109	2394	34.4	0
109	2394	34.5	0
109	2394	34.6	0
109	2394	34.7	0
109	2394	34.8	0
109	2394	34.9	0
109	2394	35	0
109	2394	35.1	0
109	2394	35.2	0
109	2394	35.3	0
109	2394	35.4	0
109	2394	35.5	0
109	2394	35.6	0
109	2394	35.7	0
109	2394	35.8	0
109	2394	35.9	0
109	2394	36	0
109	2394	36.1	0
109	2394	36.2	0
109	2394	36.3	0
109	2394	36.4	0
109	2394	36.499634515139	0
110	2394	0.1	0
110	2394	0.2	0
110	2394	0.3	0
110	2394	0.4	0
110	2394	0.5	0
110	2394	0.6	0
110	2394	0.7	0
110	2394	0.8	0
110	2394	0.9	0
110	2394	1	0
110	2394	1.1	0
110	2394	1.2	0
110	2394	1.3	0
110	2394	1.4	0
110	2394	1.5	0
110	2394	1.6	0
110	2394	1.7	0
110	2394	1.8	0
110	2394	1.9	0
110	2394	2	0
110	2394	2.1	0
110	2394	2.2	0
110	2394	2.3	0
110	2394	2.4	0
110	2394	2.5	0
110	2394	2.6	0
110	2394	2.7	0
110	2394	2.8	0
110	2394	2.9	0
110	2394	3	0
110	2394	3.1	0
110	2394	3.2	0
110	2394	3.3	0
110	2394	3.4	0
110	2394	3.5	0
110	2394	3.6	0
110	2394	3.7	0
110	2394	3.8	0
110	2394	3.9	0
110	2394	4	0
110	2394	4.1	0
110	2394	4.2	0
110	2394	4.3	0
110	2394	4.4	0
110	2394	4.5	0
110	2394	4.6	0
110	2394	4.7	0
110	2394	4.8	0
110	2394	4.9	0
110	2394	5	0
110	2394	5.1	0
110	2394	5.2	0
110	2394	5.3	0
110	2394	5.4	0
110	2394	5.5	0
110	2394	5.6	0
110	2394	5.7	0
110	2394	5.8	0
110	2394	5.9	0
110	2394	6	0
110	2394	6.1	0
110	2394	6.2	0
110	2394	6.3	0
110	2394	6.4	0
110	2394	6.5	0
110	2394	6.6	0
110	2394	6.7	0
110	2394	6.8	0
110	2394	6.9	0
110	2394	7	0
110	2394	7.1	0
110	2394	7.2	0
110	2394	7.3	0
110	2394	7.4	0
110	2394	7.5	0
110	2394	7.6	0
110	2394	7.7	0
110	2394	7.8	0
110	2394	7.9	0
110	2394	8	0
110	2394	8.1	0
110	2394	8.2	0
110	2394	8.3	0
110	2394	8.4	0
110	2394	8.5	0
110	2394	8.6	0
110	2394	8.7	0
110	2394	8.8	0
110	2394	8.9	0
110	2394	9	0
110	2394	9.1	0
110	2394	9.2	0
110	2394	9.3	0
110	2394	9.4	0
110	2394	9.5	0
110	2394	9.6	0
110	2394	9.7	0
110	2394	9.8	0
110	2394	9.9	0
110	2394	10	0
110	2394	10.1	0
110	2394	10.2	0
110	2394	10.3	0
110	2394	10.4	0
110	2394	10.5	0
110	2394	10.6	0
110	2394	10.7	0
110	2394	10.8	0
110	2394	10.9	0
110	2394	11	0
110	2394	11.1	0
110	2394	11.2	0
110	2394	11.3	0
110	2394	11.4	0
110	2394	11.5	0
110	2394	11.6	0
110	2394	11.7	0
110	2394	11.8	0
110	2394	11.9	0
110	2394	12	0
110	2394	12.1	0
110	2394	12.2	0
110	2394	12.3	0
110	2394	12.4	0
110	2394	12.5	0
110	2394	12.6	0
110	2394	12.7	0
110	2394	12.8	0
110	2394	12.9	0
110	2394	13	0
110	2394	13.1	0
110	2394	13.2	0
110	2394	13.3	0
110	2394	13.4	0
110	2394	13.5	0
110	2394	13.6	0
110	2394	13.7	0
110	2394	13.8	0
110	2394	13.9	0
110	2394	14	0
110	2394	14.1	0
110	2394	14.2	0
110	2394	14.3	0
110	2394	14.4	0
110	2394	14.5	0
110	2394	14.6	0
110	2394	14.7	0
110	2394	14.8	0
110	2394	14.9	0
110	2394	15	0
110	2394	15.1	0
110	2394	15.2	0
110	2394	15.3	0
110	2394	15.4	0
110	2394	15.5	0
110	2394	15.6	0
110	2394	15.7	0
110	2394	15.8	0
110	2394	15.9	0
110	2394	16	0
110	2394	16.1	0
110	2394	16.2	0
110	2394	16.3	0
110	2394	16.4	0
110	2394	16.5	0
110	2394	16.6	0
110	2394	16.7	0
110	2394	16.8	0
110	2394	16.9	0
110	2394	17	0
110	2394	17.1	0
110	2394	17.2	0
110	2394	17.3	0
110	2394	17.4	0
110	2394	17.5	0
110	2394	17.6	0
110	2394	17.7	0
110	2394	17.8	0
110	2394	17.9	0
110	2394	18	0
110	2394	18.1	0
110	2394	18.2	0
110	2394	18.3	0
110	2394	18.4	0
110	2394	18.5	0
110	2394	18.6	0
110	2394	18.7	0
110	2394	18.8	0
110	2394	18.9	0
110	2394	19	0
110	2394	19.1	0
110	2394	19.2	0
110	2394	19.3	0
110	2394	19.4	0
110	2394	19.5	0
110	2394	19.6	0
110	2394	19.7	0
110	2394	19.8	0
110	2394	19.9	0
110	2394	20	0
110	2394	20.1	0
110	2394	20.2	0
110	2394	20.3	0
110	2394	20.4	0
110	2394	20.5	0
110	2394	20.6	0
110	2394	20.7	0
110	2394	20.8	0
110	2394	20.9	0
110	2394	21	0
110	2394	21.1	0
110	2394	21.2	0
110	2394	21.3	0
110	2394	21.4	0
110	2394	21.5	0
110	2394	21.6	0
110	2394	21.7	0
110	2394	21.8	0
110	2394	21.9	0
110	2394	22	0
110	2394	22.1	0
110	2394	22.2	0
110	2394	22.3	0
110	2394	22.4	0
110	2394	22.5	0
110	2394	22.6	0
110	2394	22.7	0
110	2394	22.8	0
110	2394	22.9	0
110	2394	23	0
110	2394	23.1	0
110	2394	23.2	0
110	2394	23.3	0
110	2394	23.4	0
110	2394	23.5	0
110	2394	23.6	0
110	2394	23.7	0
110	2394	23.8	0
110	2394	23.9	0
110	2394	24	0
110	2394	24.1	0
110	2394	24.2	0
110	2394	24.3	0
110	2394	24.4	0
110	2394	24.5	0
110	2394	24.6	0
110	2394	24.7	0
110	2394	24.8	0
110	2394	24.9	0
110	2394	25	0
110	2394	25.1	0
110	2394	25.2	0
110	2394	25.3	0
110	2394	25.4	0
110	2394	25.5	0
110	2394	25.6	0
110	2394	25.7	0
110	2394	25.8	0
110	2394	25.9	0
110	2394	26	0
110	2394	26.1	0
110	2394	26.2	0
110	2394	26.3	0
110	2394	26.4	0
110	2394	26.5	0
110	2394	26.6	0
110	2394	26.7	0
110	2394	26.8	0
110	2394	26.9	0
110	2394	27	0
110	2394	27.1	0
110	2394	27.2	0
110	2394	27.3	0
110	2394	27.4	0
110	2394	27.5	0
110	2394	27.6	0
110	2394	27.7	0
110	2394	27.8	0
110	2394	27.9	0
110	2394	28	0
110	2394	28.1	0
110	2394	28.2	0
110	2394	28.3	0
110	2394	28.4	0
110	2394	28.5	0
110	2394	28.6	0
110	2394	28.7	0
110	2394	28.8	0
110	2394	28.9	0
110	2394	29	0
110	2394	29.1	0
110	2394	29.2	0
110	2394	29.3	0
110	2394	29.4	0
110	2394	29.5	0
110	2394	29.6	0
110	2394	29.7	0
110	2394	29.8	0
110	2394	29.9	0
110	2394	30	0
110	2394	30.1	0
110	2394	30.2	0
110	2394	30.3	0
110	2394	30.4	0
110	2394	30.5	0
110	2394	30.6	0
110	2394	30.7	0
110	2394	30.8	0
110	2394	30.9	0
110	2394	31	0
110	2394	31.1	0
110	2394	31.2	0
110	2394	31.3	0
110	2394	31.4	0
110	2394	31.5	0
110	2394	31.6	0
110	2394	31.7	0
110	2394	31.8	0
110	2394	31.9	0
110	2394	32	0
110	2394	32.1	0
110	2394	32.2	0
110	2394	32.3	0
110	2394	32.4	0
110	2394	32.5	0
110	2394	32.6	0
110	2394	32.7	0
110	2394	32.8	0
110	2394	32.9	0
110	2394	33	0
110	2394	33.1	0
110	2394	33.2	0
110	2394	33.3	0
110	2394	33.4	0
110	2394	33.5	0
110	2394	33.6	0
110	2394	33.7	0
110	2394	33.8	0
110	2394	33.9	0
110	2394	34	0
110	2394	34.1	0
110	2394	34.2	0
110	2394	34.3	0
110	2394	34.4	0
110	2394	34.5	0
110	2394	34.6	0
110	2394	34.7	0
110	2394	34.8	0
110	2394	34.9	0
110	2394	35	0
110	2394	35.1	0
110	2394	35.2	0
110	2394	35.3	0
110	2394	35.4	0
110	2394	35.5	0
110	2394	35.6	0
110	2394	35.7	0
110	2394	35.8	0
110	2394	35.9	0
110	2394	36	0
110	2394	36.1	0
110	2394	36.2	0
110	2394	36.3	0
110	2394	36.4	0
110	2394	36.499634515139	0

