version 2
run Sim4drone-0-20210729-12:31:45-2212
attr configname Sim4drone
attr datetime 20210729-12:31:45
attr experiment Sim4drone
attr inifile mobilityDrones-omnetpp.ini
attr iterationvars ""
attr iterationvarsf ""
attr measurement ""
attr network mobilityDrones
attr processid 2212
attr repetition 0
attr replication #0
attr resultdir results
attr runnumber 0
attr seedset 0
param *.numUAVs 4
param *.quads[0].app[0].destAddresses "\"quads[1] quads[2] quads[3] sensors[0] sensors[1] sensors[2] groundStation\""
param *.quads[1].app[0].destAddresses "\"quads[0] quads[2] quads[3] sensors[0] sensors[1] sensors[2] groundStation\""
param *.quads[2].app[0].destAddresses "\"quads[0] quads[1] quads[3] sensors[0] sensors[1] sensors[2] groundStation\""
param *.quads[3].app[0].destAddresses "\"quads[0] quads[1] quads[2] sensors[0] sensors[1] sensors[2] groundStation\""
param *.quads[*].mobility.waypointFile "\"paths/voo2.waypoints\""
param *.quads[*].app[*].timeoutDuration 5s
param *.quads[0].mobility.startTime 0s
param *.quads[1].mobility.startTime 40s
param *.quads[2].mobility.startTime 80s
param *.quads[3].mobility.startTime 110s
param *.quads[0].app[*].startTime "normal(1s, 1s)"
param *.quads[1].app[*].startTime "normal(40s, 1s)"
param *.quads[2].app[*].startTime "normal(80s, 1s)"
param *.quads[3].app[*].startTime "normal(110s, 1s)"
param *.numSensors 8
param *.sensors[*].numApps 1
param *.sensors[*].app[0].typename "\"UdpSensorCommunicationApp\""
param *.sensors[*].app[0].destAddresses "\"quads[0] quads[1] quads[2] quads[3]\""
param *.sensors[*].app[0].destPort 1000
param *.sensors[*].app[0].localPort 1000
param *.sensors[*].app[0].sendInterval 8s
param *.sensors[*].app[0].startTime exponential(1s)
param *.sensors[*].app[0].messageLength 1454Byte
param *.sensors[*].mobility.initialAltitude 0m
param *.sensors[0].mobility.initialLatitude -15.84245230deg
param *.sensors[0].mobility.initialLongitude -47.92948720deg
param *.sensors[1].mobility.initialLatitude -15.84262780deg
param *.sensors[1].mobility.initialLongitude -47.92650460deg
param *.sensors[2].mobility.initialLatitude -15.84161630deg
param *.sensors[2].mobility.initialLongitude -47.92395110deg
param *.sensors[3..7].app[0].typename "\"UdpSinkMobileSenserNode\""
param *.sensors[3].mobility.initialLatitude -15.8436264deg
param *.sensors[3].mobility.initialLongitude -47.9270250deg
param *.sensors[4].mobility.initialLatitude -15.8406461deg
param *.sensors[4].mobility.initialLongitude -47.9240263deg
param *.sensors[5].mobility.initialLatitude -15.8416370deg
param *.sensors[5].mobility.initialLongitude -47.9227066deg
param *.sensors[6].mobility.initialLatitude -15.8437115deg
param *.sensors[6].mobility.initialLongitude -47.9259145deg
param *.sensors[7].mobility.initialLatitude -15.8437425deg
param *.sensors[7].mobility.initialLongitude -47.9246378deg
param *.groundStation.mobility.initialLatitude -15.840068deg
param *.groundStation.mobility.initialLongitude -47.926633deg
param *.groundStation.app[0].destAddresses "\"quads[0] quads[1] quads[2] quads[3]\""
param *.groundStation.app[0].startTime 130s
param *.visualizer.osgVisualizer.typename "\"IntegratedOsgVisualizer\""
param *.visualizer.osgVisualizer.sceneVisualizer.typename "\"SceneOsgEarthVisualizer\""
param *.visualizer.osgVisualizer.sceneVisualizer.mapFile "\"map.earth\""
param *.visualizer.osgVisualizer.sceneVisualizer.sceneImageSize 10000m
param *.visualizer.osgVisualizer.sceneVisualizer.axisLength 500m
param *.visualizer.osgVisualizer.sceneVisualizer.sceneMinX -200m
param *.visualizer.osgVisualizer.sceneVisualizer.sceneMinY -200m
param *.visualizer.osgVisualizer.sceneVisualizer.sceneMinZ 0m
param *.visualizer.osgVisualizer.sceneVisualizer.sceneMaxX 5000m
param *.visualizer.osgVisualizer.sceneVisualizer.sceneMaxY 5000m
param *.visualizer.osgVisualizer.sceneVisualizer.sceneMaxZ 5000m
param *.visualizer.osgVisualizer.networkNodeVisualizer.displayModuleName true
param *.visualizer.*.statisticVisualizer.signalName "\"dataLoad\""
param *.visualizer.*.statisticVisualizer.format "\"(%v)\""
param *.visualizer.*.statisticVisualizer.textColor "\"red\""
param *.visualizer.*.statisticVisualizer.font "\"Courier New, 12px, bold\""
param *.visualizer.*.statisticVisualizer.opacity 1
param *.visualizer.*.statisticVisualizer.sourceFilter "\"*.quads[*].** *.groundStation.**\""
param *.visualizer.*.mobilityVisualizer.displayMobility true
param *.visualizer.*.mobilityVisualizer.displayPositions true
param *.visualizer.*.mobilityVisualizer.displayOrientations true
param *.visualizer.*.mobilityVisualizer.displayVelocities true
param *.visualizer.*.mobilityVisualizer.displayMovementTrails true
param *.visualizer.*.mobilityVisualizer.animationSpeed 10
param *.visualizer.mediumVisualizer.displaySignals true
param **.constraintAreaMinX -5000m
param **.constraintAreaMinY -5000m
param **.constraintAreaMinZ -100m
param **.constraintAreaMaxX 5000m
param **.constraintAreaMaxY 5000m
param **.constraintAreaMaxZ 5000m
param *.quads.wlan[0].radio.displayCommunicationRange true
param *.coordinateSystem.sceneLongitude -47.926634deg
param *.coordinateSystem.sceneLatitude -15.840075deg
param *.coordinateSystem.sceneHeading 90deg
param *.environment.ground.typename "\"FlatGround\""
param *.quads[*].osgModel "\"3d/drone.ive.80.scale.0,0,90.rot\""
param *.quads[*].mobility.coordinateSystemModule "\"coordinateSystem\""
param *.quads[*].mobility.waypointFile "\"paths/gradys-vai-e-volta-descendo-5s-v1.txt\""
param *.quads[*].mobility.waypointProximity 1m
param **.mobility.initFromDisplayString false
param *.quads[*].mobility.speed 10mps
param *.quads[*].numApps 1
param *.quads[*].app[0].typename "\"UdpMobileNodeCommunicationApp\""
param *.quads[*].app[0].localPort 1000
param *.quads[*].app[0].destPort 1000
param *.quads[*].app[0].sendInterval 1s
param *.quads[*].app[0].startTime 1s
param *.quads[*].app[0].stopTime -1s
param *.quads[*].app[0].messageLength 1454Byte
param *.quads[*].app[0].packetName "\"UAV-DEFAULT-PAYLOAD\""
param *.quads[*].mobility.typename "\"DroneMobility\""
param *.sensors[*].mobility.typename "\"StationaryMobility\""
param *.sensors[*].mobility.coordinateSystemModule "\"coordinateSystem\""
param *.groundStation.mobility.typename "\"StationaryMobility\""
param *.groundStation.mobility.coordinateSystemModule "\"coordinateSystem\""
param *.groundStation.numApps 1
param *.groundStation.app[0].typename "\"UdpMobileNodeCommunicationApp\""
param *.groundStation.app[0].destPort 1000
param *.groundStation.app[0].localPort 1000
param *.groundStation.app[0].sendInterval 1s
param *.groundStation.app[0].stopTime -1s
param *.groundStation.app[0].messageLength 1454Byte
param *.groundStation.app[0].packetName "\"UAV-DEFAULT-PAYLOAD\""

scalar mobilityDrones.radioMedium.propagation "Arrival computation count" 24324
scalar mobilityDrones.radioMedium "transmission count" 2027
scalar mobilityDrones.radioMedium "signal send count" 24324
scalar mobilityDrones.radioMedium "reception computation count" 24324
scalar mobilityDrones.radioMedium "interference computation count" 74538
scalar mobilityDrones.radioMedium "reception decision computation count" 1300
scalar mobilityDrones.radioMedium "listening decision computation count" 49098
scalar mobilityDrones.radioMedium "reception cache hit" 76.7905192649
attr unit %
scalar mobilityDrones.radioMedium "interference cache hit" 66.666666666667
attr unit %
scalar mobilityDrones.radioMedium "noise cache hit" 0
attr unit %
scalar mobilityDrones.radioMedium "snir cache hit" 50
attr unit %
scalar mobilityDrones.radioMedium "reception decision cache hit" 50
attr unit %
scalar mobilityDrones.radioMedium "reception result cache hit" 0
attr unit %
scalar mobilityDrones.quads[0].lo[0].lo rcvdPkFromHl:count 165
attr interpolationmode none
attr source packetReceivedFromUpper
attr title "packets received from higher layer, count"
scalar mobilityDrones.quads[0].lo[0].lo rcvdPkFromHl:sum(packetBytes) 6930
attr interpolationmode none
attr source packetReceivedFromUpper
attr title "packets received from higher layer, sum(packetBytes)"
scalar mobilityDrones.quads[0].lo[0].lo passedUpPk:count 165
attr interpolationmode none
attr source packetSentToUpper
attr title "packets passed to higher layer, count"
scalar mobilityDrones.quads[0].lo[0].lo passedUpPk:sum(packetBytes) 6930
attr interpolationmode none
attr source packetSentToUpper
attr title "packets passed to higher layer, sum(packetBytes)"
scalar mobilityDrones.quads[0].wlan[0].mac.dcf.channelAccess.pendingQueue packetPopped:count 197
attr interpolationmode none
attr title "packet popped, count"
scalar mobilityDrones.quads[0].wlan[0].mac.dcf.channelAccess.pendingQueue packetPopped:sum(packetBytes) 15254
attr interpolationmode none
attr title "packet popped, sum(packetBytes)"
statistic mobilityDrones.quads[0].wlan[0].mac.dcf.channelAccess.pendingQueue queueingTime:histogram
field count 197
field mean 0.00027111865282741
field stddev 0.0020992080398638
field min 0
field max 0.019698374607
field sum 0.053410374607
field sqrsum 0.0008781887301577
attr interpolationmode none
attr source queueingTime(packetPopped)
attr title "queueing times, histogram"
attr unit s
bin	-inf	0
bin	0	191
bin	0.000396	3
bin	0.000792	0
bin	0.001188	0
bin	0.001584	0
bin	0.00198	0
bin	0.002376	0
bin	0.002772	0
bin	0.003168	0
bin	0.003564	0
bin	0.00396	0
bin	0.004356	0
bin	0.004752	0
bin	0.005148	0
bin	0.005544	0
bin	0.00594	0
bin	0.006336	0
bin	0.006732	0
bin	0.007128	0
bin	0.007524	0
bin	0.00792	0
bin	0.008316	0
bin	0.008712	0
bin	0.009108	0
bin	0.009504	0
bin	0.0099	0
bin	0.010296	0
bin	0.010692	0
bin	0.011088	1
bin	0.011484	0
bin	0.01188	0
bin	0.012276	0
bin	0.012672	0
bin	0.013068	0
bin	0.013464	0
bin	0.01386	0
bin	0.014256	0
bin	0.014652	0
bin	0.015048	0
bin	0.015444	0
bin	0.01584	0
bin	0.016236	0
bin	0.016632	0
bin	0.017028	0
bin	0.017424	0
bin	0.01782	0
bin	0.018216	0
bin	0.018612	1
bin	0.019008	0
bin	0.019404	1
bin	0.0198	0
scalar mobilityDrones.quads[0].wlan[0].mac.dcf.channelAccess.pendingQueue queueLength:max 1
attr interpolationmode sample-hold
attr source "count(packetPushed) - count(packetPopped) - count(packetRemoved) - count(packetDropped)"
attr title "queue length, max"
scalar mobilityDrones.quads[0].wlan[0].mac.dcf.channelAccess.pendingQueue queueLength:timeavg 0.00015769308292908
attr interpolationmode sample-hold
attr source "count(packetPushed) - count(packetPopped) - count(packetRemoved) - count(packetDropped)"
attr title "queue length, timeavg"
scalar mobilityDrones.quads[0].wlan[0].mac.dcf.channelAccess.pendingQueue packetPushed:count 197
attr interpolationmode none
attr title "packet pushed, count"
scalar mobilityDrones.quads[0].wlan[0].mac.dcf.channelAccess.pendingQueue packetPushed:sum(packetBytes) 15254
attr interpolationmode none
attr title "packet pushed, sum(packetBytes)"
scalar mobilityDrones.quads[0].wlan[0].mac.dcf.channelAccess.pendingQueue packetDropQueueOverflow:count 0
attr interpolationmode none
attr source packetDropReasonIsQueueOverflow(packetDropped)
attr title "packet drops: queue overflow, count"
scalar mobilityDrones.quads[0].wlan[0].mac.dcf.channelAccess.pendingQueue packetDropQueueOverflow:sum(packetBytes) 0
attr interpolationmode none
attr source packetDropReasonIsQueueOverflow(packetDropped)
attr title "packet drops: queue overflow, sum(packetBytes)"
scalar mobilityDrones.quads[0].wlan[0].mac.dcf.channelAccess.pendingQueue packetRemoved:count 0
attr interpolationmode none
attr title "packets removed, count"
scalar mobilityDrones.quads[0].wlan[0].mac.dcf.channelAccess.pendingQueue packetRemoved:sum(packetBytes) 0
attr interpolationmode none
attr title "packets removed, sum(packetBytes)"
statistic mobilityDrones.quads[0].wlan[0].mac.dcf.channelAccess.inProgressFrames queueingTime:histogram
field count 197
field mean 0.0028786964321421
field stddev 0.012179955048902
field min 5e-005
field max 0.086237
field sum 0.567103197132
field sqrsum 0.030709373728923
attr interpolationmode none
attr source queueingTime(packetDequeued)
attr title "queueing times, histogram"
bin	-inf	0
bin	0	184
bin	0.01	2
bin	0.02	3
bin	0.03	3
bin	0.04	2
bin	0.05	0
bin	0.06	0
bin	0.07	1
bin	0.08	2
bin	0.09	0
bin	0.1	0
bin	0.11	0
bin	0.12	0
bin	0.13	0
bin	0.14	0
bin	0.15	0
bin	0.16	0
bin	0.17	0
bin	0.18	0
bin	0.19	0
bin	0.2	0
bin	0.21	0
bin	0.22	0
bin	0.23	0
bin	0.24	0
bin	0.25	0
bin	0.26	0
bin	0.27	0
bin	0.28	0
bin	0.29	0
bin	0.3	0
bin	0.31	0
bin	0.32	0
bin	0.33	0
bin	0.34	0
bin	0.35	0
bin	0.36	0
bin	0.37	0
bin	0.38	0
bin	0.39	0
bin	0.4	0
bin	0.41	0
bin	0.42	0
bin	0.43	0
bin	0.44	0
bin	0.45	0
bin	0.46	0
bin	0.47	0
bin	0.48	0
bin	0.49	0
bin	0.5	0
bin	0.51	0
scalar mobilityDrones.quads[0].wlan[0].mac.dcf.channelAccess.inProgressFrames queueLength:max 1
attr interpolationmode sample-hold
attr source "count(packetEnqueued) - count(packetDequeued)"
attr title "queue length, max"
scalar mobilityDrones.quads[0].wlan[0].mac.dcf.channelAccess.inProgressFrames queueLength:timeavg 0.0016743613081628
attr interpolationmode sample-hold
attr source "count(packetEnqueued) - count(packetDequeued)"
attr title "queue length, timeavg"
scalar mobilityDrones.quads[0].wlan[0].mac.dcf.channelAccess.contention stateChanged:count 2736
attr interpolationmode none
attr title "contention state changed, count"
scalar mobilityDrones.quads[0].wlan[0].mac.dcf.channelAccess.contention channelAccessGranted:count 283
attr title "channel access granted, count"
scalar mobilityDrones.quads[0].wlan[0].mac.dcf.channelAccess channelOwnershipChanged:count 566
attr interpolationmode sample-hold
attr title "channel ownership, count"
scalar mobilityDrones.quads[0].wlan[0].mac.dcf.originatorMacDataService packetAggregated:count 0
attr title "packets aggregated, count"
scalar mobilityDrones.quads[0].wlan[0].mac.dcf.originatorMacDataService packetFragmented:count 0
attr title "packets fragmented, count"
scalar mobilityDrones.quads[0].wlan[0].mac.dcf.recipientMacDataService packetDropDuplicateDetected:count 0
attr interpolationmode none
attr source packetDropReasonIsDuplicateDetected(packetDropped)
attr title "packet drops: duplicate detected, count"
scalar mobilityDrones.quads[0].wlan[0].mac.dcf.recipientMacDataService packetDropDuplicateDetected:sum(packetBytes) 0
attr interpolationmode none
attr source packetDropReasonIsDuplicateDetected(packetDropped)
attr title "packet drops: duplicate detected, sum(packetBytes)"
scalar mobilityDrones.quads[0].wlan[0].mac.dcf.recipientMacDataService packetDeaggregated:count 0
attr title "packets deaggregated, count"
scalar mobilityDrones.quads[0].wlan[0].mac.dcf.recipientMacDataService packetDefragmented:count 56
attr title "packets defragmented, count"
scalar mobilityDrones.quads[0].wlan[0].mac.dcf.recoveryProcedure retryLimitReached:count 12
attr title "retry limit reached, count"
scalar mobilityDrones.quads[0].wlan[0].mac.dcf packetReceivedFromPeer:count 75
attr interpolationmode none
attr title "packets received, count"
scalar mobilityDrones.quads[0].wlan[0].mac.dcf packetReceivedFromPeer:sum(packetBytes) 4522
attr interpolationmode none
attr title "packets received, sum(packetBytes)"
scalar mobilityDrones.quads[0].wlan[0].mac.dcf packetReceivedFromPeerUnicast:count 66
attr interpolationmode none
attr source ieee80211Unicast(packetReceivedFromPeer)
attr title "packets received: unicast, count"
scalar mobilityDrones.quads[0].wlan[0].mac.dcf packetReceivedFromPeerUnicast:sum(packetBytes) 3918
attr interpolationmode none
attr source ieee80211Unicast(packetReceivedFromPeer)
attr title "packets received: unicast, sum(packetBytes)"
scalar mobilityDrones.quads[0].wlan[0].mac.dcf packetReceivedFromPeerMulticast:count 9
attr interpolationmode none
attr source ieee80211Multicast(packetReceivedFromPeer)
attr title "packets received: multicast, count"
scalar mobilityDrones.quads[0].wlan[0].mac.dcf packetReceivedFromPeerMulticast:sum(packetBytes) 604
attr interpolationmode none
attr source ieee80211Multicast(packetReceivedFromPeer)
attr title "packets received: multicast, sum(packetBytes)"
scalar mobilityDrones.quads[0].wlan[0].mac.dcf packetReceivedFromPeerBroadcast:count 7
attr interpolationmode none
attr source ieee80211Broadcast(packetReceivedFromPeer)
attr title "packets received: broadcast, count"
scalar mobilityDrones.quads[0].wlan[0].mac.dcf packetReceivedFromPeerBroadcast:sum(packetBytes) 448
attr interpolationmode none
attr source ieee80211Broadcast(packetReceivedFromPeer)
attr title "packets received: broadcast, sum(packetBytes)"
scalar mobilityDrones.quads[0].wlan[0].mac.dcf packetReceivedFromPeerWithRetry:count 1
attr interpolationmode none
attr source ieee80211Retry(packetReceivedFromPeer)
attr title "packets received: with retry, count"
scalar mobilityDrones.quads[0].wlan[0].mac.dcf packetReceivedFromPeerWithRetry:sum(packetBytes) 78
attr interpolationmode none
attr source ieee80211Retry(packetReceivedFromPeer)
attr title "packets received: with retry, sum(packetBytes)"
scalar mobilityDrones.quads[0].wlan[0].mac.dcf packetReceivedFromPeerWithoutRetry:count 74
attr interpolationmode none
attr source ieee80211NotRetry(packetReceivedFromPeer)
attr title "packets received: without retry, count"
scalar mobilityDrones.quads[0].wlan[0].mac.dcf packetReceivedFromPeerWithoutRetry:sum(packetBytes) 4444
attr interpolationmode none
attr source ieee80211NotRetry(packetReceivedFromPeer)
attr title "packets received: without retry, sum(packetBytes)"
scalar mobilityDrones.quads[0].wlan[0].mac.dcf packetSentToPeer:count 330
attr interpolationmode none
attr title "packets sent, count"
scalar mobilityDrones.quads[0].wlan[0].mac.dcf packetSentToPeer:sum(packetBytes) 22620
attr interpolationmode none
attr title "packets sent, sum(packetBytes)"
scalar mobilityDrones.quads[0].wlan[0].mac.dcf packetSentToPeerUnicast:count 164
attr interpolationmode none
attr source ieee80211Unicast(packetSentToPeer)
attr title "packets sent: unicast, count"
scalar mobilityDrones.quads[0].wlan[0].mac.dcf packetSentToPeerUnicast:sum(packetBytes) 9686
attr interpolationmode none
attr source ieee80211Unicast(packetSentToPeer)
attr title "packets sent: unicast, sum(packetBytes)"
scalar mobilityDrones.quads[0].wlan[0].mac.dcf packetSentToPeerMulticast:count 166
attr interpolationmode none
attr source ieee80211Multicast(packetSentToPeer)
attr title "packets sent: multicast, count"
scalar mobilityDrones.quads[0].wlan[0].mac.dcf packetSentToPeerMulticast:sum(packetBytes) 12934
attr interpolationmode none
attr source ieee80211Multicast(packetSentToPeer)
attr title "packets sent: multicast, sum(packetBytes)"
scalar mobilityDrones.quads[0].wlan[0].mac.dcf packetSentToPeerBroadcast:count 1
attr interpolationmode none
attr source ieee80211Broadcast(packetSentToPeer)
attr title "packets sent: broadcast , count"
scalar mobilityDrones.quads[0].wlan[0].mac.dcf packetSentToPeerBroadcast:sum(packetBytes) 64
attr interpolationmode none
attr source ieee80211Broadcast(packetSentToPeer)
attr title "packets sent: broadcast , sum(packetBytes)"
scalar mobilityDrones.quads[0].wlan[0].mac.dcf packetSentToPeerWithRetry:count 86
attr interpolationmode none
attr source ieee80211Retry(packetSentToPeer)
attr title "packets sent: with retry, count"
scalar mobilityDrones.quads[0].wlan[0].mac.dcf packetSentToPeerWithRetry:sum(packetBytes) 6708
attr interpolationmode none
attr source ieee80211Retry(packetSentToPeer)
attr title "packets sent: with retry, sum(packetBytes)"
scalar mobilityDrones.quads[0].wlan[0].mac.dcf packetSentToPeerWithoutRetry:count 244
attr interpolationmode none
attr source ieee80211NotRetry(packetSentToPeer)
attr title "packets sent: without retry, count"
scalar mobilityDrones.quads[0].wlan[0].mac.dcf packetSentToPeerWithoutRetry:sum(packetBytes) 15912
attr interpolationmode none
attr source ieee80211NotRetry(packetSentToPeer)
attr title "packets sent: without retry, sum(packetBytes)"
scalar mobilityDrones.quads[0].wlan[0].mac.dcf packetDrop:count 15
attr interpolationmode none
attr source packetDropped
attr title "packet drops, count"
scalar mobilityDrones.quads[0].wlan[0].mac.dcf packetDrop:sum(packetBytes) 1042
attr interpolationmode none
attr source packetDropped
attr title "packet drops, sum(packetBytes)"
scalar mobilityDrones.quads[0].wlan[0].mac.dcf packetDropNotAddressedToUs:count 3
attr interpolationmode none
attr source packetDropReasonIsNotAddressedToUs(packetDropped)
attr title "packet drops: not addressed to us, count"
scalar mobilityDrones.quads[0].wlan[0].mac.dcf packetDropNotAddressedToUs:sum(packetBytes) 106
attr interpolationmode none
attr source packetDropReasonIsNotAddressedToUs(packetDropped)
attr title "packet drops: not addressed to us, sum(packetBytes)"
scalar mobilityDrones.quads[0].wlan[0].mac.dcf packetDropQueueOverflow:count 0
attr interpolationmode none
attr source packetDropReasonIsQueueOverflow(packetDropped)
attr title "packet drops: queue overflow, count"
scalar mobilityDrones.quads[0].wlan[0].mac.dcf packetDropQueueOverflow:sum(packetBytes) 0
attr interpolationmode none
attr source packetDropReasonIsQueueOverflow(packetDropped)
attr title "packet drops: queue overflow, sum(packetBytes)"
scalar mobilityDrones.quads[0].wlan[0].mac.dcf packetDropRetryLimitReached:count 12
attr interpolationmode none
attr source packetDropReasonIsRetryLimitReached(packetDropped)
attr title "packet drops: retry limit reached, count"
scalar mobilityDrones.quads[0].wlan[0].mac.dcf packetDropRetryLimitReached:sum(packetBytes) 936
attr interpolationmode none
attr source packetDropReasonIsRetryLimitReached(packetDropped)
attr title "packet drops: retry limit reached, sum(packetBytes)"
scalar mobilityDrones.quads[0].wlan[0].mac.dcf linkBroken:count 12
attr interpolationmode none
attr title "link breaks, count"
scalar mobilityDrones.quads[0].wlan[0].mac.dcf frameSequenceFinished:count 283
attr title "finished frame sequences, count"
statistic mobilityDrones.quads[0].wlan[0].mac.dcf frameSequenceDuration:histogram
field count 283
field mean 7.5933558770318e-005
field stddev 2.6355768741506e-005
field min 5e-005
field max 0.000109
field sum 0.021489197132
field sqrsum 1.8276358993092e-006
attr source frameSequenceDuration(frameSequenceFinished)
attr title "frame sequence durations, histogram"
bin	-inf	0
bin	0	283
bin	0.01	0
bin	0.02	0
bin	0.03	0
bin	0.04	0
bin	0.05	0
bin	0.06	0
bin	0.07	0
bin	0.08	0
bin	0.09	0
bin	0.1	0
bin	0.11	0
bin	0.12	0
bin	0.13	0
bin	0.14	0
bin	0.15	0
bin	0.16	0
bin	0.17	0
bin	0.18	0
bin	0.19	0
bin	0.2	0
bin	0.21	0
bin	0.22	0
bin	0.23	0
bin	0.24	0
bin	0.25	0
bin	0.26	0
bin	0.27	0
bin	0.28	0
bin	0.29	0
bin	0.3	0
bin	0.31	0
bin	0.32	0
bin	0.33	0
bin	0.34	0
bin	0.35	0
bin	0.36	0
bin	0.37	0
bin	0.38	0
bin	0.39	0
bin	0.4	0
bin	0.41	0
bin	0.42	0
bin	0.43	0
bin	0.44	0
bin	0.45	0
bin	0.46	0
bin	0.47	0
bin	0.48	0
bin	0.49	0
bin	0.5	0
bin	0.51	0
statistic mobilityDrones.quads[0].wlan[0].mac.dcf frameSequenceNumPackets:histogram
field count 283
field mean 1.4134275618375
field stddev 0.4933205454005
field min 1
field max 2
field sum 400
field sqrsum 634
attr source frameSequenceNumPackets(frameSequenceFinished)
attr title "frame sequences: number of packets, histogram"
bin	-inf	0
bin	0	0
bin	1	166
bin	2	117
bin	3	0
scalar mobilityDrones.quads[0].wlan[0].mac packetReceivedFromLower:count 81
attr interpolationmode none
attr title "packets received from lower layer, count"
scalar mobilityDrones.quads[0].wlan[0].mac packetReceivedFromLower:sum(packetBytes) 4834
attr interpolationmode none
attr title "packets received from lower layer, sum(packetBytes)"
scalar mobilityDrones.quads[0].wlan[0].mac packetSentToLower:count 330
attr interpolationmode none
attr title "packets sent to lower layer, count"
scalar mobilityDrones.quads[0].wlan[0].mac packetSentToLower:sum(packetBytes) 22620
attr interpolationmode none
attr title "packets sent to lower layer, sum(packetBytes)"
scalar mobilityDrones.quads[0].wlan[0].mac packetReceivedFromUpper:count 197
attr interpolationmode none
attr title "packets received from upper layer, count"
scalar mobilityDrones.quads[0].wlan[0].mac packetReceivedFromUpper:sum(packetBytes) 9738
attr interpolationmode none
attr title "packets received from upper layer, sum(packetBytes)"
scalar mobilityDrones.quads[0].wlan[0].mac packetSentToUpper:count 56
attr interpolationmode none
attr title "packets sent to upper layer, count"
scalar mobilityDrones.quads[0].wlan[0].mac packetSentToUpper:sum(packetBytes) 2688
attr interpolationmode none
attr title "packets sent to upper layer, sum(packetBytes)"
scalar mobilityDrones.quads[0].wlan[0].mac packetDrop:count 18
attr interpolationmode none
attr source packetDropped
attr title "packet drops, count"
scalar mobilityDrones.quads[0].wlan[0].mac packetDrop:sum(packetBytes) 1248
attr interpolationmode none
attr source packetDropped
attr title "packet drops, sum(packetBytes)"
scalar mobilityDrones.quads[0].wlan[0].mac packetDropIncorrectlyReceived:count 3
attr interpolationmode none
attr source packetDropReasonIsIncorrectlyReceived(packetDropped)
attr title "packet drops: incorrectly received, count"
scalar mobilityDrones.quads[0].wlan[0].mac packetDropIncorrectlyReceived:sum(packetBytes) 206
attr interpolationmode none
attr source packetDropReasonIsIncorrectlyReceived(packetDropped)
attr title "packet drops: incorrectly received, sum(packetBytes)"
scalar mobilityDrones.quads[0].wlan[0].mac packetDropNotAddressedToUs:count 3
attr interpolationmode none
attr source packetDropReasonIsNotAddressedToUs(packetDropped)
attr title "packet drops: not addressed to us, count"
scalar mobilityDrones.quads[0].wlan[0].mac packetDropNotAddressedToUs:sum(packetBytes) 106
attr interpolationmode none
attr source packetDropReasonIsNotAddressedToUs(packetDropped)
attr title "packet drops: not addressed to us, sum(packetBytes)"
scalar mobilityDrones.quads[0].wlan[0].mac packetDropQueueOverflow:count 0
attr interpolationmode none
attr source packetDropReasonIsQueueOverflow(packetDropped)
attr title "packet drops: queue overflow, count"
scalar mobilityDrones.quads[0].wlan[0].mac packetDropQueueOverflow:sum(packetBytes) 0
attr interpolationmode none
attr source packetDropReasonIsQueueOverflow(packetDropped)
attr title "packet drops: queue overflow, sum(packetBytes)"
scalar mobilityDrones.quads[0].wlan[0].mac packetDropRetryLimitReached:count 12
attr interpolationmode none
attr source packetDropReasonIsRetryLimitReached(packetDropped)
attr title "packet drops: retry limit reached, count"
scalar mobilityDrones.quads[0].wlan[0].mac packetDropRetryLimitReached:sum(packetBytes) 936
attr interpolationmode none
attr source packetDropReasonIsRetryLimitReached(packetDropped)
attr title "packet drops: retry limit reached, sum(packetBytes)"
scalar mobilityDrones.quads[0].wlan[0].mac packetDropDuplicateDetected:count 0
attr interpolationmode none
attr source packetDropReasonIsDuplicateDetected(packetDropped)
attr title "packet drops: duplicate detected, count"
scalar mobilityDrones.quads[0].wlan[0].mac packetDropDuplicateDetected:sum(packetBytes) 0
attr interpolationmode none
attr source packetDropReasonIsDuplicateDetected(packetDropped)
attr title "packet drops: duplicate detected, sum(packetBytes)"
scalar mobilityDrones.quads[0].wlan[0].mac packetDropOther:count 0
attr interpolationmode none
attr source packetDropReasonIsOther(packetDropped)
attr title "packet drops: other, count"
scalar mobilityDrones.quads[0].wlan[0].mac packetDropOther:sum(packetBytes) 0
attr interpolationmode none
attr source packetDropReasonIsOther(packetDropped)
attr title "packet drops: other, sum(packetBytes)"
scalar mobilityDrones.quads[0].wlan[0].mac linkBroken:count 12
attr interpolationmode none
attr title "link breaks, count"
statistic mobilityDrones.quads[0].wlan[0].radio minSnir:histogram
field count 81
field mean 355.07019464493
field stddev 1020.8949140637
field min 13.846145022714
field max 6004.6031926239
field sum 28760.685766239
field sqrsum 93590176.338032
attr source minimumSnir(packetSentToUpper)
attr title "Min SNIR, histogram"
bin	-inf	0
bin	0	63
bin	100	4
bin	200	0
bin	300	2
bin	400	0
bin	500	0
bin	600	1
bin	700	3
bin	800	0
bin	900	0
bin	1000	0
bin	1100	2
bin	1200	0
bin	1300	1
bin	1400	0
bin	1500	0
bin	1600	0
bin	1700	1
bin	1800	0
bin	1900	0
bin	2000	0
bin	2100	0
bin	2200	0
bin	2300	0
bin	2400	0
bin	2500	0
bin	2600	2
bin	2700	0
bin	2800	0
bin	2900	0
bin	3000	0
bin	3100	0
bin	3200	0
bin	3300	0
bin	3400	0
bin	3500	0
bin	3600	0
bin	3700	0
bin	3800	0
bin	3900	0
bin	4000	0
bin	4100	0
bin	4200	0
bin	4300	0
bin	4400	0
bin	4500	0
bin	4600	0
bin	4700	0
bin	4800	0
bin	4900	0
bin	5000	0
bin	5100	0
bin	5200	0
bin	5300	0
bin	5400	0
bin	5500	0
bin	5600	0
bin	5700	1
bin	5800	0
bin	5900	0
bin	6000	1
bin	6100	0
bin	6200	0
bin	6300	0
bin	6400	0
bin	6500	0
bin	6600	0
bin	6700	0
bin	6800	0
bin	6900	0
bin	7000	0
bin	7100	0
bin	7200	0
bin	7300	0
bin	7400	0
bin	7500	0
bin	7600	0
statistic mobilityDrones.quads[0].wlan[0].radio packetErrorRate:histogram
field count 81
field mean 0.044852779565202
field stddev 0.1603259225909
field min 0
field max 0.97338572352707
field sum 3.6330751447813
field sqrsum 2.2193056349825
attr source packetErrorRate(packetSentToUpper)
attr title "Packet error rate, histogram"
bin	-inf	0
bin	0	64
bin	0.02	3
bin	0.04	7
bin	0.06	1
bin	0.08	1
bin	0.1	0
bin	0.12	1
bin	0.14	0
bin	0.16	0
bin	0.18	0
bin	0.2	0
bin	0.22	0
bin	0.24	0
bin	0.26	0
bin	0.28	0
bin	0.3	0
bin	0.32	0
bin	0.34	0
bin	0.36	0
bin	0.38	0
bin	0.4	0
bin	0.42	0
bin	0.44	1
bin	0.46	0
bin	0.48	0
bin	0.5	0
bin	0.52	0
bin	0.54	0
bin	0.56	0
bin	0.58	1
bin	0.6	0
bin	0.62	0
bin	0.64	0
bin	0.66	0
bin	0.68	0
bin	0.7	0
bin	0.72	0
bin	0.74	0
bin	0.76	0
bin	0.78	0
bin	0.8	0
bin	0.82	1
bin	0.84	0
bin	0.86	0
bin	0.88	0
bin	0.9	0
bin	0.92	0
bin	0.94	0
bin	0.96	1
bin	0.98	0
bin	1	0
bin	1.02	0
bin	1.04	0
bin	1.06	0
bin	1.08	0
bin	1.1	0
bin	1.12	0
bin	1.14	0
bin	1.16	0
bin	1.18	0
bin	1.2	0
bin	1.22	0
statistic mobilityDrones.quads[0].wlan[0].radio bitErrorRate:histogram
field count 0
field mean nan
field stddev nan
field min nan
field max nan
field sum 0
field sqrsum 0
attr source bitErrorRate(packetSentToUpper)
attr title "Bit error rate, histogram"
bin	-inf	0
bin	0	0
bin	1	0
statistic mobilityDrones.quads[0].wlan[0].radio symbolErrorRate:histogram
field count 0
field mean nan
field stddev nan
field min nan
field max nan
field sum 0
field sqrsum 0
attr source symbolErrorRate(packetSentToUpper)
attr title "Symbol error rate, histogram"
bin	-inf	0
bin	0	0
bin	1	0
scalar mobilityDrones.quads[0].wlan[0].radio transmissionState:count 1320
attr interpolationmode sample-hold
attr source transmissionStateChanged
attr title "Radio transmission state, count"
scalar mobilityDrones.quads[0].wlan[0].radio receptionState:count 837
attr interpolationmode sample-hold
attr source receptionStateChanged
attr title "Radio reception state, count"
scalar mobilityDrones.quads[0].wlan[0].radio radioMode:count 663
attr interpolationmode sample-hold
attr source radioModeChanged
attr title "Radio mode, count"
statistic mobilityDrones.quads[0].wlan[0].radio radioChannel:histogram
field count 1
field mean 0
field stddev nan
field min 0
field max 0
field sum 0
field sqrsum 0
attr interpolationmode sample-hold
attr source radioChannelChanged
attr title "Radio channel, histogram"
bin	-inf	0
bin	-0.5	0
bin	-0.48	0
bin	-0.46	0
bin	-0.44	0
bin	-0.42	0
bin	-0.4	0
bin	-0.38	0
bin	-0.36	0
bin	-0.34	0
bin	-0.32	0
bin	-0.3	0
bin	-0.28	0
bin	-0.26	0
bin	-0.24	0
bin	-0.22	0
bin	-0.2	0
bin	-0.18	0
bin	-0.16	0
bin	-0.14	0
bin	-0.12	0
bin	-0.1	0
bin	-0.08	0
bin	-0.06	0
bin	-0.04	0
bin	-0.02	0
bin	0	1
bin	0.02	0
bin	0.04	0
bin	0.06	0
bin	0.08	0
bin	0.1	0
bin	0.12	0
bin	0.14	0
bin	0.16	0
bin	0.18	0
bin	0.2	0
bin	0.22	0
bin	0.24	0
bin	0.26	0
bin	0.28	0
bin	0.3	0
bin	0.32	0
bin	0.34	0
bin	0.36	0
bin	0.38	0
bin	0.4	0
bin	0.42	0
bin	0.44	0
bin	0.46	0
bin	0.48	0
bin	0.5	0
scalar mobilityDrones.quads[0].ipv4.ip packetDropAddressResolutionFailed:count 0
attr interpolationmode none
attr source packetDropReasonIsAddressResolutionFailed(packetDropped)
attr title "packet drop: address resolution failed, count"
scalar mobilityDrones.quads[0].ipv4.ip packetDropAddressResolutionFailed:sum(packetBytes) 0
attr interpolationmode none
attr source packetDropReasonIsAddressResolutionFailed(packetDropped)
attr title "packet drop: address resolution failed, sum(packetBytes)"
scalar mobilityDrones.quads[0].ipv4.ip packetDropHopLimitReached:count 0
attr interpolationmode none
attr source packetDropReasonIsHopLimitReached(packetDropped)
attr title "packet drop: hop limit reached, count"
scalar mobilityDrones.quads[0].ipv4.ip packetDropHopLimitReached:sum(packetBytes) 0
attr interpolationmode none
attr source packetDropReasonIsHopLimitReached(packetDropped)
attr title "packet drop: hop limit reached, sum(packetBytes)"
scalar mobilityDrones.quads[0].ipv4.ip packetDropForwardingDisabled:count 0
attr interpolationmode none
attr source packetDropReasonIsForwardingDisabled(packetDropped)
attr title "packet drop: forwarding disabled, count"
scalar mobilityDrones.quads[0].ipv4.ip packetDropForwardingDisabled:sum(packetBytes) 0
attr interpolationmode none
attr source packetDropReasonIsForwardingDisabled(packetDropped)
attr title "packet drop: forwarding disabled, sum(packetBytes)"
scalar mobilityDrones.quads[0].ipv4.ip packetDropNoInterfaceFound:count 0
attr interpolationmode none
attr source packetDropReasonIsNoInterfaceFound(packetDropped)
attr title "packet drop: no interface found, count"
scalar mobilityDrones.quads[0].ipv4.ip packetDropNoInterfaceFound:sum(packetBytes) 0
attr interpolationmode none
attr source packetDropReasonIsNoInterfaceFound(packetDropped)
attr title "packet drop: no interface found, sum(packetBytes)"
scalar mobilityDrones.quads[0].ipv4.ip packetDropNoRouteFound:count 0
attr interpolationmode none
attr source packetDropReasonIsNoRouteFound(packetDropped)
attr title "packet drop: no route found, count"
scalar mobilityDrones.quads[0].ipv4.ip packetDropNoRouteFound:sum(packetBytes) 0
attr interpolationmode none
attr source packetDropReasonIsNoRouteFound(packetDropped)
attr title "packet drop: no route found, sum(packetBytes)"
scalar mobilityDrones.quads[0].ipv4.ip packetDropUndefined:count 0
attr interpolationmode none
attr source packetDropReasonIsUndefined(packetDropped)
attr title "packet drop: undefined, count"
scalar mobilityDrones.quads[0].ipv4.ip packetDropUndefined:sum(packetBytes) 0
attr interpolationmode none
attr source packetDropReasonIsUndefined(packetDropped)
attr title "packet drop: undefined, sum(packetBytes)"
scalar mobilityDrones.quads[0].ipv4.arp arpReplySent:count 7
attr source arpReplySent
attr title "ARP replies sent, count"
scalar mobilityDrones.quads[0].ipv4.arp arpReplySent:sum(packetBytes) 196
attr source arpReplySent
attr title "ARP replies sent, sum(packetBytes)"
scalar mobilityDrones.quads[0].ipv4.arp arpRequestSent:count 1
attr source arpRequestSent
attr title "ARP request sent, count"
scalar mobilityDrones.quads[0].ipv4.arp arpRequestSent:sum(packetBytes) 28
attr source arpRequestSent
attr title "ARP request sent, sum(packetBytes)"
scalar mobilityDrones.quads[0].ipv4.arp arpResolutionFailed:count 0
attr title "ARP failed resolutions, count"
scalar mobilityDrones.quads[0].ipv4.arp arpResolutionCompleted:count 8
attr title "ARP completed resolutions, count"
scalar mobilityDrones.quads[0].ipv4.arp arpResolutionInitiated:count 1
attr title "ARP initiated resolutions, count"
scalar mobilityDrones.quads[0].udp packetReceived:count 213
attr interpolationmode none
attr source packetReceived
attr title "packets received, count"
scalar mobilityDrones.quads[0].udp packetReceived:sum(packetBytes) 4686
attr interpolationmode none
attr source packetReceived
attr title "packets received, sum(packetBytes)"
scalar mobilityDrones.quads[0].udp packetSent:count 189
attr interpolationmode none
attr source packetSent
attr title "packets sent, count"
scalar mobilityDrones.quads[0].udp packetSent:sum(packetBytes) 4158
attr interpolationmode none
attr source packetSent
attr title "packets sent, sum(packetBytes)"
scalar mobilityDrones.quads[0].udp passedUpPk:count 213
attr interpolationmode none
attr source packetSentToUpper
attr title "packets passed up, count"
scalar mobilityDrones.quads[0].udp droppedPkWrongPort:count 0
attr interpolationmode none
attr source packetDropReasonIsNoPortFound(packetDropped)
attr title "packets dropped (wrong port), count"
scalar mobilityDrones.quads[0].udp droppedPkBadChecksum:count 0
attr interpolationmode none
attr source packetDropReasonIsIncorrectlyReceived(packetDropped)
attr title "packets dropped (checksum error), count"
scalar mobilityDrones.quads[0].app[0] "packets sent" 189
scalar mobilityDrones.quads[0].app[0] "packets received" 0
scalar mobilityDrones.quads[0].app[0] packetReceived:count 47
attr interpolationmode none
attr source packetReceived
attr title "packets received, count"
scalar mobilityDrones.quads[0].app[0] packetReceived:sum(packetBytes) 658
attr interpolationmode none
attr source packetReceived
attr title "packets received, sum(packetBytes)"
statistic mobilityDrones.quads[0].app[0] rcvdPkLifetime:stats
field count 47
field mean 0.043502781352043
field stddev 0.20408405095389
field min 5.428446e-005
field max 1.001268910404
field sum 2.044630723546
field sqrsum 2.0048609165846
attr interpolationmode none
attr source dataAge(packetReceived)
attr title "received packet lifetime, stats"
attr unit s
scalar mobilityDrones.quads[0].app[0] packetSent:count 189
attr interpolationmode none
attr source packetSent
attr title "packets sent, count"
scalar mobilityDrones.quads[0].app[0] packetSent:sum(packetBytes) 2646
attr interpolationmode none
attr source packetSent
attr title "packets sent, sum(packetBytes)"
scalar mobilityDrones.quads[1].lo[0].lo rcvdPkFromHl:count 141
attr interpolationmode none
attr source packetReceivedFromUpper
attr title "packets received from higher layer, count"
scalar mobilityDrones.quads[1].lo[0].lo rcvdPkFromHl:sum(packetBytes) 5922
attr interpolationmode none
attr source packetReceivedFromUpper
attr title "packets received from higher layer, sum(packetBytes)"
scalar mobilityDrones.quads[1].lo[0].lo passedUpPk:count 141
attr interpolationmode none
attr source packetSentToUpper
attr title "packets passed to higher layer, count"
scalar mobilityDrones.quads[1].lo[0].lo passedUpPk:sum(packetBytes) 5922
attr interpolationmode none
attr source packetSentToUpper
attr title "packets passed to higher layer, sum(packetBytes)"
scalar mobilityDrones.quads[1].wlan[0].mac.dcf.channelAccess.pendingQueue packetPopped:count 198
attr interpolationmode none
attr title "packet popped, count"
scalar mobilityDrones.quads[1].wlan[0].mac.dcf.channelAccess.pendingQueue packetPopped:sum(packetBytes) 15332
attr interpolationmode none
attr title "packet popped, sum(packetBytes)"
statistic mobilityDrones.quads[1].wlan[0].mac.dcf.channelAccess.pendingQueue queueingTime:histogram
field count 198
field mean 0.00028527692487374
field stddev 0.0018966743837234
field min 0
field max 0.01883
field sum 0.056484831125
field sqrsum 0.00072479644134628
attr interpolationmode none
attr source queueingTime(packetPopped)
attr title "queueing times, histogram"
attr unit s
bin	-inf	0
bin	-0.5	0
bin	-0.48	0
bin	-0.46	0
bin	-0.44	0
bin	-0.42	0
bin	-0.4	0
bin	-0.38	0
bin	-0.36	0
bin	-0.34	0
bin	-0.32	0
bin	-0.3	0
bin	-0.28	0
bin	-0.26	0
bin	-0.24	0
bin	-0.22	0
bin	-0.2	0
bin	-0.18	0
bin	-0.16	0
bin	-0.14	0
bin	-0.12	0
bin	-0.1	0
bin	-0.08	0
bin	-0.06	0
bin	-0.04	0
bin	-0.02	0
bin	0	198
bin	0.02	0
bin	0.04	0
bin	0.06	0
bin	0.08	0
bin	0.1	0
bin	0.12	0
bin	0.14	0
bin	0.16	0
bin	0.18	0
bin	0.2	0
bin	0.22	0
bin	0.24	0
bin	0.26	0
bin	0.28	0
bin	0.3	0
bin	0.32	0
bin	0.34	0
bin	0.36	0
bin	0.38	0
bin	0.4	0
bin	0.42	0
bin	0.44	0
bin	0.46	0
bin	0.48	0
bin	0.5	0
scalar mobilityDrones.quads[1].wlan[0].mac.dcf.channelAccess.pendingQueue queueLength:max 2
attr interpolationmode sample-hold
attr source "count(packetPushed) - count(packetPopped) - count(packetRemoved) - count(packetDropped)"
attr title "queue length, max"
scalar mobilityDrones.quads[1].wlan[0].mac.dcf.channelAccess.pendingQueue queueLength:timeavg 0.00018863031126576
attr interpolationmode sample-hold
attr source "count(packetPushed) - count(packetPopped) - count(packetRemoved) - count(packetDropped)"
attr title "queue length, timeavg"
scalar mobilityDrones.quads[1].wlan[0].mac.dcf.channelAccess.pendingQueue packetPushed:count 198
attr interpolationmode none
attr title "packet pushed, count"
scalar mobilityDrones.quads[1].wlan[0].mac.dcf.channelAccess.pendingQueue packetPushed:sum(packetBytes) 15332
attr interpolationmode none
attr title "packet pushed, sum(packetBytes)"
scalar mobilityDrones.quads[1].wlan[0].mac.dcf.channelAccess.pendingQueue packetDropQueueOverflow:count 0
attr interpolationmode none
attr source packetDropReasonIsQueueOverflow(packetDropped)
attr title "packet drops: queue overflow, count"
scalar mobilityDrones.quads[1].wlan[0].mac.dcf.channelAccess.pendingQueue packetDropQueueOverflow:sum(packetBytes) 0
attr interpolationmode none
attr source packetDropReasonIsQueueOverflow(packetDropped)
attr title "packet drops: queue overflow, sum(packetBytes)"
scalar mobilityDrones.quads[1].wlan[0].mac.dcf.channelAccess.pendingQueue packetRemoved:count 0
attr interpolationmode none
attr title "packets removed, count"
scalar mobilityDrones.quads[1].wlan[0].mac.dcf.channelAccess.pendingQueue packetRemoved:sum(packetBytes) 0
attr interpolationmode none
attr title "packets removed, sum(packetBytes)"
statistic mobilityDrones.quads[1].wlan[0].mac.dcf.channelAccess.inProgressFrames queueingTime:histogram
field count 198
field mean 0.0048529956885101
field stddev 0.014981234828322
field min 5e-005
field max 0.094337
field sum 0.960893146325
field sqrsum 0.048877377501557
attr interpolationmode none
attr source queueingTime(packetDequeued)
attr title "queueing times, histogram"
bin	-inf	0
bin	0	176
bin	0.01	1
bin	0.02	5
bin	0.03	8
bin	0.04	2
bin	0.05	2
bin	0.06	2
bin	0.07	0
bin	0.08	1
bin	0.09	1
bin	0.1	0
bin	0.11	0
bin	0.12	0
bin	0.13	0
bin	0.14	0
bin	0.15	0
bin	0.16	0
bin	0.17	0
bin	0.18	0
bin	0.19	0
bin	0.2	0
bin	0.21	0
bin	0.22	0
bin	0.23	0
bin	0.24	0
bin	0.25	0
bin	0.26	0
bin	0.27	0
bin	0.28	0
bin	0.29	0
bin	0.3	0
bin	0.31	0
bin	0.32	0
bin	0.33	0
bin	0.34	0
bin	0.35	0
bin	0.36	0
bin	0.37	0
bin	0.38	0
bin	0.39	0
bin	0.4	0
bin	0.41	0
bin	0.42	0
bin	0.43	0
bin	0.44	0
bin	0.45	0
bin	0.46	0
bin	0.47	0
bin	0.48	0
bin	0.49	0
bin	0.5	0
bin	0.51	0
scalar mobilityDrones.quads[1].wlan[0].mac.dcf.channelAccess.inProgressFrames queueLength:max 2
attr interpolationmode sample-hold
attr source "count(packetEnqueued) - count(packetDequeued)"
attr title "queue length, max"
scalar mobilityDrones.quads[1].wlan[0].mac.dcf.channelAccess.inProgressFrames queueLength:timeavg 0.0032088893544412
attr interpolationmode sample-hold
attr source "count(packetEnqueued) - count(packetDequeued)"
attr title "queue length, timeavg"
scalar mobilityDrones.quads[1].wlan[0].mac.dcf.channelAccess.contention stateChanged:count 3448
attr interpolationmode none
attr title "contention state changed, count"
scalar mobilityDrones.quads[1].wlan[0].mac.dcf.channelAccess.contention channelAccessGranted:count 333
attr title "channel access granted, count"
scalar mobilityDrones.quads[1].wlan[0].mac.dcf.channelAccess channelOwnershipChanged:count 666
attr interpolationmode sample-hold
attr title "channel ownership, count"
scalar mobilityDrones.quads[1].wlan[0].mac.dcf.originatorMacDataService packetAggregated:count 0
attr title "packets aggregated, count"
scalar mobilityDrones.quads[1].wlan[0].mac.dcf.originatorMacDataService packetFragmented:count 0
attr title "packets fragmented, count"
scalar mobilityDrones.quads[1].wlan[0].mac.dcf.recipientMacDataService packetDropDuplicateDetected:count 1
attr interpolationmode none
attr source packetDropReasonIsDuplicateDetected(packetDropped)
attr title "packet drops: duplicate detected, count"
scalar mobilityDrones.quads[1].wlan[0].mac.dcf.recipientMacDataService packetDropDuplicateDetected:sum(packetBytes) 78
attr interpolationmode none
attr source packetDropReasonIsDuplicateDetected(packetDropped)
attr title "packet drops: duplicate detected, sum(packetBytes)"
scalar mobilityDrones.quads[1].wlan[0].mac.dcf.recipientMacDataService packetDeaggregated:count 0
attr title "packets deaggregated, count"
scalar mobilityDrones.quads[1].wlan[0].mac.dcf.recipientMacDataService packetDefragmented:count 86
attr title "packets defragmented, count"
scalar mobilityDrones.quads[1].wlan[0].mac.dcf.recoveryProcedure retryLimitReached:count 22
attr title "retry limit reached, count"
scalar mobilityDrones.quads[1].wlan[0].mac.dcf packetReceivedFromPeer:count 121
attr interpolationmode none
attr title "packets received, count"
scalar mobilityDrones.quads[1].wlan[0].mac.dcf packetReceivedFromPeer:sum(packetBytes) 7150
attr interpolationmode none
attr title "packets received, sum(packetBytes)"
scalar mobilityDrones.quads[1].wlan[0].mac.dcf packetReceivedFromPeerUnicast:count 96
attr interpolationmode none
attr source ieee80211Unicast(packetReceivedFromPeer)
attr title "packets received: unicast, count"
scalar mobilityDrones.quads[1].wlan[0].mac.dcf packetReceivedFromPeerUnicast:sum(packetBytes) 5298
attr interpolationmode none
attr source ieee80211Unicast(packetReceivedFromPeer)
attr title "packets received: unicast, sum(packetBytes)"
scalar mobilityDrones.quads[1].wlan[0].mac.dcf packetReceivedFromPeerMulticast:count 25
attr interpolationmode none
attr source ieee80211Multicast(packetReceivedFromPeer)
attr title "packets received: multicast, count"
scalar mobilityDrones.quads[1].wlan[0].mac.dcf packetReceivedFromPeerMulticast:sum(packetBytes) 1852
attr interpolationmode none
attr source ieee80211Multicast(packetReceivedFromPeer)
attr title "packets received: multicast, sum(packetBytes)"
scalar mobilityDrones.quads[1].wlan[0].mac.dcf packetReceivedFromPeerBroadcast:count 7
attr interpolationmode none
attr source ieee80211Broadcast(packetReceivedFromPeer)
attr title "packets received: broadcast, count"
scalar mobilityDrones.quads[1].wlan[0].mac.dcf packetReceivedFromPeerBroadcast:sum(packetBytes) 448
attr interpolationmode none
attr source ieee80211Broadcast(packetReceivedFromPeer)
attr title "packets received: broadcast, sum(packetBytes)"
scalar mobilityDrones.quads[1].wlan[0].mac.dcf packetReceivedFromPeerWithRetry:count 9
attr interpolationmode none
attr source ieee80211Retry(packetReceivedFromPeer)
attr title "packets received: with retry, count"
scalar mobilityDrones.quads[1].wlan[0].mac.dcf packetReceivedFromPeerWithRetry:sum(packetBytes) 702
attr interpolationmode none
attr source ieee80211Retry(packetReceivedFromPeer)
attr title "packets received: with retry, sum(packetBytes)"
scalar mobilityDrones.quads[1].wlan[0].mac.dcf packetReceivedFromPeerWithoutRetry:count 112
attr interpolationmode none
attr source ieee80211NotRetry(packetReceivedFromPeer)
attr title "packets received: without retry, count"
scalar mobilityDrones.quads[1].wlan[0].mac.dcf packetReceivedFromPeerWithoutRetry:sum(packetBytes) 6448
attr interpolationmode none
attr source ieee80211NotRetry(packetReceivedFromPeer)
attr title "packets received: without retry, sum(packetBytes)"
scalar mobilityDrones.quads[1].wlan[0].mac.dcf packetSentToPeer:count 395
attr interpolationmode none
attr title "packets sent, count"
scalar mobilityDrones.quads[1].wlan[0].mac.dcf packetSentToPeer:sum(packetBytes) 26716
attr interpolationmode none
attr title "packets sent, sum(packetBytes)"
scalar mobilityDrones.quads[1].wlan[0].mac.dcf packetSentToPeerUnicast:count 253
attr interpolationmode none
attr source ieee80211Unicast(packetSentToPeer)
attr title "packets sent: unicast, count"
scalar mobilityDrones.quads[1].wlan[0].mac.dcf packetSentToPeerUnicast:sum(packetBytes) 15654
attr interpolationmode none
attr source ieee80211Unicast(packetSentToPeer)
attr title "packets sent: unicast, sum(packetBytes)"
scalar mobilityDrones.quads[1].wlan[0].mac.dcf packetSentToPeerMulticast:count 142
attr interpolationmode none
attr source ieee80211Multicast(packetSentToPeer)
attr title "packets sent: multicast, count"
scalar mobilityDrones.quads[1].wlan[0].mac.dcf packetSentToPeerMulticast:sum(packetBytes) 11062
attr interpolationmode none
attr source ieee80211Multicast(packetSentToPeer)
attr title "packets sent: multicast, sum(packetBytes)"
scalar mobilityDrones.quads[1].wlan[0].mac.dcf packetSentToPeerBroadcast:count 1
attr interpolationmode none
attr source ieee80211Broadcast(packetSentToPeer)
attr title "packets sent: broadcast , count"
scalar mobilityDrones.quads[1].wlan[0].mac.dcf packetSentToPeerBroadcast:sum(packetBytes) 64
attr interpolationmode none
attr source ieee80211Broadcast(packetSentToPeer)
attr title "packets sent: broadcast , sum(packetBytes)"
scalar mobilityDrones.quads[1].wlan[0].mac.dcf packetSentToPeerWithRetry:count 135
attr interpolationmode none
attr source ieee80211Retry(packetSentToPeer)
attr title "packets sent: with retry, count"
scalar mobilityDrones.quads[1].wlan[0].mac.dcf packetSentToPeerWithRetry:sum(packetBytes) 10516
attr interpolationmode none
attr source ieee80211Retry(packetSentToPeer)
attr title "packets sent: with retry, sum(packetBytes)"
scalar mobilityDrones.quads[1].wlan[0].mac.dcf packetSentToPeerWithoutRetry:count 260
attr interpolationmode none
attr source ieee80211NotRetry(packetSentToPeer)
attr title "packets sent: without retry, count"
scalar mobilityDrones.quads[1].wlan[0].mac.dcf packetSentToPeerWithoutRetry:sum(packetBytes) 16200
attr interpolationmode none
attr source ieee80211NotRetry(packetSentToPeer)
attr title "packets sent: without retry, sum(packetBytes)"
scalar mobilityDrones.quads[1].wlan[0].mac.dcf packetDrop:count 23
attr interpolationmode none
attr source packetDropped
attr title "packet drops, count"
scalar mobilityDrones.quads[1].wlan[0].mac.dcf packetDrop:sum(packetBytes) 1794
attr interpolationmode none
attr source packetDropped
attr title "packet drops, sum(packetBytes)"
scalar mobilityDrones.quads[1].wlan[0].mac.dcf packetDropNotAddressedToUs:count 0
attr interpolationmode none
attr source packetDropReasonIsNotAddressedToUs(packetDropped)
attr title "packet drops: not addressed to us, count"
scalar mobilityDrones.quads[1].wlan[0].mac.dcf packetDropNotAddressedToUs:sum(packetBytes) 0
attr interpolationmode none
attr source packetDropReasonIsNotAddressedToUs(packetDropped)
attr title "packet drops: not addressed to us, sum(packetBytes)"
scalar mobilityDrones.quads[1].wlan[0].mac.dcf packetDropQueueOverflow:count 0
attr interpolationmode none
attr source packetDropReasonIsQueueOverflow(packetDropped)
attr title "packet drops: queue overflow, count"
scalar mobilityDrones.quads[1].wlan[0].mac.dcf packetDropQueueOverflow:sum(packetBytes) 0
attr interpolationmode none
attr source packetDropReasonIsQueueOverflow(packetDropped)
attr title "packet drops: queue overflow, sum(packetBytes)"
scalar mobilityDrones.quads[1].wlan[0].mac.dcf packetDropRetryLimitReached:count 22
attr interpolationmode none
attr source packetDropReasonIsRetryLimitReached(packetDropped)
attr title "packet drops: retry limit reached, count"
scalar mobilityDrones.quads[1].wlan[0].mac.dcf packetDropRetryLimitReached:sum(packetBytes) 1716
attr interpolationmode none
attr source packetDropReasonIsRetryLimitReached(packetDropped)
attr title "packet drops: retry limit reached, sum(packetBytes)"
scalar mobilityDrones.quads[1].wlan[0].mac.dcf linkBroken:count 22
attr interpolationmode none
attr title "link breaks, count"
scalar mobilityDrones.quads[1].wlan[0].mac.dcf frameSequenceFinished:count 333
attr title "finished frame sequences, count"
statistic mobilityDrones.quads[1].wlan[0].mac.dcf frameSequenceDuration:histogram
field count 333
field mean 8.4382796441442e-005
field stddev 2.6465671426604e-005
field min 5e-005
field max 0.000109
field sum 0.028099471215
field sqrsum 2.6036553053157e-006
attr source frameSequenceDuration(frameSequenceFinished)
attr title "frame sequence durations, histogram"
bin	-inf	0
bin	0	333
bin	0.01	0
bin	0.02	0
bin	0.03	0
bin	0.04	0
bin	0.05	0
bin	0.06	0
bin	0.07	0
bin	0.08	0
bin	0.09	0
bin	0.1	0
bin	0.11	0
bin	0.12	0
bin	0.13	0
bin	0.14	0
bin	0.15	0
bin	0.16	0
bin	0.17	0
bin	0.18	0
bin	0.19	0
bin	0.2	0
bin	0.21	0
bin	0.22	0
bin	0.23	0
bin	0.24	0
bin	0.25	0
bin	0.26	0
bin	0.27	0
bin	0.28	0
bin	0.29	0
bin	0.3	0
bin	0.31	0
bin	0.32	0
bin	0.33	0
bin	0.34	0
bin	0.35	0
bin	0.36	0
bin	0.37	0
bin	0.38	0
bin	0.39	0
bin	0.4	0
bin	0.41	0
bin	0.42	0
bin	0.43	0
bin	0.44	0
bin	0.45	0
bin	0.46	0
bin	0.47	0
bin	0.48	0
bin	0.49	0
bin	0.5	0
bin	0.51	0
statistic mobilityDrones.quads[1].wlan[0].mac.dcf frameSequenceNumPackets:histogram
field count 333
field mean 1.5735735735736
field stddev 0.49530156156619
field min 1
field max 2
field sum 524
field sqrsum 906
attr source frameSequenceNumPackets(frameSequenceFinished)
attr title "frame sequences: number of packets, histogram"
bin	-inf	0
bin	0	0
bin	1	142
bin	2	191
bin	3	0
scalar mobilityDrones.quads[1].wlan[0].mac packetReceivedFromLower:count 150
attr interpolationmode none
attr title "packets received from lower layer, count"
scalar mobilityDrones.quads[1].wlan[0].mac packetReceivedFromLower:sum(packetBytes) 9398
attr interpolationmode none
attr title "packets received from lower layer, sum(packetBytes)"
scalar mobilityDrones.quads[1].wlan[0].mac packetSentToLower:count 395
attr interpolationmode none
attr title "packets sent to lower layer, count"
scalar mobilityDrones.quads[1].wlan[0].mac packetSentToLower:sum(packetBytes) 26716
attr interpolationmode none
attr title "packets sent to lower layer, sum(packetBytes)"
scalar mobilityDrones.quads[1].wlan[0].mac packetReceivedFromUpper:count 198
attr interpolationmode none
attr title "packets received from upper layer, count"
scalar mobilityDrones.quads[1].wlan[0].mac packetReceivedFromUpper:sum(packetBytes) 9788
attr interpolationmode none
attr title "packets received from upper layer, sum(packetBytes)"
scalar mobilityDrones.quads[1].wlan[0].mac packetSentToUpper:count 86
attr interpolationmode none
attr title "packets sent to upper layer, count"
scalar mobilityDrones.quads[1].wlan[0].mac packetSentToUpper:sum(packetBytes) 4188
attr interpolationmode none
attr title "packets sent to upper layer, sum(packetBytes)"
scalar mobilityDrones.quads[1].wlan[0].mac packetDrop:count 52
attr interpolationmode none
attr source packetDropped
attr title "packet drops, count"
scalar mobilityDrones.quads[1].wlan[0].mac packetDrop:sum(packetBytes) 4042
attr interpolationmode none
attr source packetDropped
attr title "packet drops, sum(packetBytes)"
scalar mobilityDrones.quads[1].wlan[0].mac packetDropIncorrectlyReceived:count 29
attr interpolationmode none
attr source packetDropReasonIsIncorrectlyReceived(packetDropped)
attr title "packet drops: incorrectly received, count"
scalar mobilityDrones.quads[1].wlan[0].mac packetDropIncorrectlyReceived:sum(packetBytes) 2248
attr interpolationmode none
attr source packetDropReasonIsIncorrectlyReceived(packetDropped)
attr title "packet drops: incorrectly received, sum(packetBytes)"
scalar mobilityDrones.quads[1].wlan[0].mac packetDropNotAddressedToUs:count 0
attr interpolationmode none
attr source packetDropReasonIsNotAddressedToUs(packetDropped)
attr title "packet drops: not addressed to us, count"
scalar mobilityDrones.quads[1].wlan[0].mac packetDropNotAddressedToUs:sum(packetBytes) 0
attr interpolationmode none
attr source packetDropReasonIsNotAddressedToUs(packetDropped)
attr title "packet drops: not addressed to us, sum(packetBytes)"
scalar mobilityDrones.quads[1].wlan[0].mac packetDropQueueOverflow:count 0
attr interpolationmode none
attr source packetDropReasonIsQueueOverflow(packetDropped)
attr title "packet drops: queue overflow, count"
scalar mobilityDrones.quads[1].wlan[0].mac packetDropQueueOverflow:sum(packetBytes) 0
attr interpolationmode none
attr source packetDropReasonIsQueueOverflow(packetDropped)
attr title "packet drops: queue overflow, sum(packetBytes)"
scalar mobilityDrones.quads[1].wlan[0].mac packetDropRetryLimitReached:count 22
attr interpolationmode none
attr source packetDropReasonIsRetryLimitReached(packetDropped)
attr title "packet drops: retry limit reached, count"
scalar mobilityDrones.quads[1].wlan[0].mac packetDropRetryLimitReached:sum(packetBytes) 1716
attr interpolationmode none
attr source packetDropReasonIsRetryLimitReached(packetDropped)
attr title "packet drops: retry limit reached, sum(packetBytes)"
scalar mobilityDrones.quads[1].wlan[0].mac packetDropDuplicateDetected:count 1
attr interpolationmode none
attr source packetDropReasonIsDuplicateDetected(packetDropped)
attr title "packet drops: duplicate detected, count"
scalar mobilityDrones.quads[1].wlan[0].mac packetDropDuplicateDetected:sum(packetBytes) 78
attr interpolationmode none
attr source packetDropReasonIsDuplicateDetected(packetDropped)
attr title "packet drops: duplicate detected, sum(packetBytes)"
scalar mobilityDrones.quads[1].wlan[0].mac packetDropOther:count 0
attr interpolationmode none
attr source packetDropReasonIsOther(packetDropped)
attr title "packet drops: other, count"
scalar mobilityDrones.quads[1].wlan[0].mac packetDropOther:sum(packetBytes) 0
attr interpolationmode none
attr source packetDropReasonIsOther(packetDropped)
attr title "packet drops: other, sum(packetBytes)"
scalar mobilityDrones.quads[1].wlan[0].mac linkBroken:count 22
attr interpolationmode none
attr title "link breaks, count"
statistic mobilityDrones.quads[1].wlan[0].radio minSnir:histogram
field count 150
field mean 611701219.14677
field stddev 7491768725.7611
field min 7.1081863075605
field max 91755054109.427
field sum 91755182872.016
field sqrsum 8.4189899546294e+021
attr source minimumSnir(packetSentToUpper)
attr title "Min SNIR, histogram"
bin	-inf	0
bin	0	149
bin	2000000000	0
bin	4000000000	0
bin	6000000000	0
bin	8000000000	0
bin	10000000000	0
bin	12000000000	0
bin	14000000000	0
bin	16000000000	0
bin	18000000000	0
bin	20000000000	0
bin	22000000000	0
bin	24000000000	0
bin	26000000000	0
bin	28000000000	0
bin	30000000000	0
bin	32000000000	0
bin	34000000000	0
bin	36000000000	0
bin	38000000000	0
bin	40000000000	0
bin	42000000000	0
bin	44000000000	0
bin	46000000000	0
bin	48000000000	0
bin	50000000000	0
bin	52000000000	0
bin	54000000000	0
bin	56000000000	0
bin	58000000000	0
bin	60000000000	0
bin	62000000000	0
bin	64000000000	0
bin	66000000000	0
bin	68000000000	0
bin	70000000000	0
bin	72000000000	0
bin	74000000000	0
bin	76000000000	0
bin	78000000000	0
bin	80000000000	0
bin	82000000000	0
bin	84000000000	0
bin	86000000000	0
bin	88000000000	0
bin	90000000000	1
bin	92000000000	0
bin	94000000000	0
bin	96000000000	0
bin	98000000000	0
bin	100000000000	0
bin	102000000000	0
bin	104000000000	0
bin	106000000000	0
bin	108000000000	0
bin	110000000000	0
bin	112000000000	0
bin	114000000000	0
bin	116000000000	0
statistic mobilityDrones.quads[1].wlan[0].radio packetErrorRate:histogram
field count 150
field mean 0.18067680669192
field stddev 0.31985142203026
field min 0
field max 1
field sum 27.101521003789
field sqrsum 20.140051165501
attr source packetErrorRate(packetSentToUpper)
attr title "Packet error rate, histogram"
bin	-inf	0
bin	0	93
bin	0.02	7
bin	0.04	3
bin	0.06	2
bin	0.08	1
bin	0.1	1
bin	0.12	1
bin	0.14	1
bin	0.16	1
bin	0.18	1
bin	0.2	2
bin	0.22	2
bin	0.24	0
bin	0.26	0
bin	0.28	2
bin	0.3	0
bin	0.32	3
bin	0.34	2
bin	0.36	2
bin	0.38	0
bin	0.4	0
bin	0.42	0
bin	0.44	0
bin	0.46	0
bin	0.48	0
bin	0.5	0
bin	0.52	1
bin	0.54	0
bin	0.56	0
bin	0.58	0
bin	0.6	0
bin	0.62	4
bin	0.64	3
bin	0.66	0
bin	0.68	0
bin	0.7	0
bin	0.72	0
bin	0.74	0
bin	0.76	0
bin	0.78	1
bin	0.8	0
bin	0.82	0
bin	0.84	4
bin	0.86	3
bin	0.88	1
bin	0.9	0
bin	0.92	0
bin	0.94	0
bin	0.96	0
bin	0.98	2
bin	1	7
bin	1.02	0
bin	1.04	0
bin	1.06	0
bin	1.08	0
bin	1.1	0
bin	1.12	0
bin	1.14	0
bin	1.16	0
bin	1.18	0
bin	1.2	0
bin	1.22	0
bin	1.24	0
bin	1.26	0
statistic mobilityDrones.quads[1].wlan[0].radio bitErrorRate:histogram
field count 0
field mean nan
field stddev nan
field min nan
field max nan
field sum 0
field sqrsum 0
attr source bitErrorRate(packetSentToUpper)
attr title "Bit error rate, histogram"
bin	-inf	0
bin	0	0
bin	1	0
statistic mobilityDrones.quads[1].wlan[0].radio symbolErrorRate:histogram
field count 0
field mean nan
field stddev nan
field min nan
field max nan
field sum 0
field sqrsum 0
attr source symbolErrorRate(packetSentToUpper)
attr title "Symbol error rate, histogram"
bin	-inf	0
bin	0	0
bin	1	0
scalar mobilityDrones.quads[1].wlan[0].radio transmissionState:count 1580
attr interpolationmode sample-hold
attr source transmissionStateChanged
attr title "Radio transmission state, count"
scalar mobilityDrones.quads[1].wlan[0].radio receptionState:count 1097
attr interpolationmode sample-hold
attr source receptionStateChanged
attr title "Radio reception state, count"
scalar mobilityDrones.quads[1].wlan[0].radio radioMode:count 793
attr interpolationmode sample-hold
attr source radioModeChanged
attr title "Radio mode, count"
statistic mobilityDrones.quads[1].wlan[0].radio radioChannel:histogram
field count 1
field mean 0
field stddev nan
field min 0
field max 0
field sum 0
field sqrsum 0
attr interpolationmode sample-hold
attr source radioChannelChanged
attr title "Radio channel, histogram"
bin	-inf	0
bin	-0.5	0
bin	-0.48	0
bin	-0.46	0
bin	-0.44	0
bin	-0.42	0
bin	-0.4	0
bin	-0.38	0
bin	-0.36	0
bin	-0.34	0
bin	-0.32	0
bin	-0.3	0
bin	-0.28	0
bin	-0.26	0
bin	-0.24	0
bin	-0.22	0
bin	-0.2	0
bin	-0.18	0
bin	-0.16	0
bin	-0.14	0
bin	-0.12	0
bin	-0.1	0
bin	-0.08	0
bin	-0.06	0
bin	-0.04	0
bin	-0.02	0
bin	0	1
bin	0.02	0
bin	0.04	0
bin	0.06	0
bin	0.08	0
bin	0.1	0
bin	0.12	0
bin	0.14	0
bin	0.16	0
bin	0.18	0
bin	0.2	0
bin	0.22	0
bin	0.24	0
bin	0.26	0
bin	0.28	0
bin	0.3	0
bin	0.32	0
bin	0.34	0
bin	0.36	0
bin	0.38	0
bin	0.4	0
bin	0.42	0
bin	0.44	0
bin	0.46	0
bin	0.48	0
bin	0.5	0
scalar mobilityDrones.quads[1].ipv4.ip packetDropAddressResolutionFailed:count 0
attr interpolationmode none
attr source packetDropReasonIsAddressResolutionFailed(packetDropped)
attr title "packet drop: address resolution failed, count"
scalar mobilityDrones.quads[1].ipv4.ip packetDropAddressResolutionFailed:sum(packetBytes) 0
attr interpolationmode none
attr source packetDropReasonIsAddressResolutionFailed(packetDropped)
attr title "packet drop: address resolution failed, sum(packetBytes)"
scalar mobilityDrones.quads[1].ipv4.ip packetDropHopLimitReached:count 0
attr interpolationmode none
attr source packetDropReasonIsHopLimitReached(packetDropped)
attr title "packet drop: hop limit reached, count"
scalar mobilityDrones.quads[1].ipv4.ip packetDropHopLimitReached:sum(packetBytes) 0
attr interpolationmode none
attr source packetDropReasonIsHopLimitReached(packetDropped)
attr title "packet drop: hop limit reached, sum(packetBytes)"
scalar mobilityDrones.quads[1].ipv4.ip packetDropForwardingDisabled:count 0
attr interpolationmode none
attr source packetDropReasonIsForwardingDisabled(packetDropped)
attr title "packet drop: forwarding disabled, count"
scalar mobilityDrones.quads[1].ipv4.ip packetDropForwardingDisabled:sum(packetBytes) 0
attr interpolationmode none
attr source packetDropReasonIsForwardingDisabled(packetDropped)
attr title "packet drop: forwarding disabled, sum(packetBytes)"
scalar mobilityDrones.quads[1].ipv4.ip packetDropNoInterfaceFound:count 0
attr interpolationmode none
attr source packetDropReasonIsNoInterfaceFound(packetDropped)
attr title "packet drop: no interface found, count"
scalar mobilityDrones.quads[1].ipv4.ip packetDropNoInterfaceFound:sum(packetBytes) 0
attr interpolationmode none
attr source packetDropReasonIsNoInterfaceFound(packetDropped)
attr title "packet drop: no interface found, sum(packetBytes)"
scalar mobilityDrones.quads[1].ipv4.ip packetDropNoRouteFound:count 0
attr interpolationmode none
attr source packetDropReasonIsNoRouteFound(packetDropped)
attr title "packet drop: no route found, count"
scalar mobilityDrones.quads[1].ipv4.ip packetDropNoRouteFound:sum(packetBytes) 0
attr interpolationmode none
attr source packetDropReasonIsNoRouteFound(packetDropped)
attr title "packet drop: no route found, sum(packetBytes)"
scalar mobilityDrones.quads[1].ipv4.ip packetDropUndefined:count 0
attr interpolationmode none
attr source packetDropReasonIsUndefined(packetDropped)
attr title "packet drop: undefined, count"
scalar mobilityDrones.quads[1].ipv4.ip packetDropUndefined:sum(packetBytes) 0
attr interpolationmode none
attr source packetDropReasonIsUndefined(packetDropped)
attr title "packet drop: undefined, sum(packetBytes)"
scalar mobilityDrones.quads[1].ipv4.arp arpReplySent:count 7
attr source arpReplySent
attr title "ARP replies sent, count"
scalar mobilityDrones.quads[1].ipv4.arp arpReplySent:sum(packetBytes) 196
attr source arpReplySent
attr title "ARP replies sent, sum(packetBytes)"
scalar mobilityDrones.quads[1].ipv4.arp arpRequestSent:count 1
attr source arpRequestSent
attr title "ARP request sent, count"
scalar mobilityDrones.quads[1].ipv4.arp arpRequestSent:sum(packetBytes) 28
attr source arpRequestSent
attr title "ARP request sent, sum(packetBytes)"
scalar mobilityDrones.quads[1].ipv4.arp arpResolutionFailed:count 0
attr title "ARP failed resolutions, count"
scalar mobilityDrones.quads[1].ipv4.arp arpResolutionCompleted:count 8
attr title "ARP completed resolutions, count"
scalar mobilityDrones.quads[1].ipv4.arp arpResolutionInitiated:count 1
attr title "ARP initiated resolutions, count"
scalar mobilityDrones.quads[1].udp packetReceived:count 205
attr interpolationmode none
attr source packetReceived
attr title "packets received, count"
scalar mobilityDrones.quads[1].udp packetReceived:sum(packetBytes) 4510
attr interpolationmode none
attr source packetReceived
attr title "packets received, sum(packetBytes)"
scalar mobilityDrones.quads[1].udp packetSent:count 190
attr interpolationmode none
attr source packetSent
attr title "packets sent, count"
scalar mobilityDrones.quads[1].udp packetSent:sum(packetBytes) 4180
attr interpolationmode none
attr source packetSent
attr title "packets sent, sum(packetBytes)"
scalar mobilityDrones.quads[1].udp passedUpPk:count 205
attr interpolationmode none
attr source packetSentToUpper
attr title "packets passed up, count"
scalar mobilityDrones.quads[1].udp droppedPkWrongPort:count 0
attr interpolationmode none
attr source packetDropReasonIsNoPortFound(packetDropped)
attr title "packets dropped (wrong port), count"
scalar mobilityDrones.quads[1].udp droppedPkBadChecksum:count 0
attr interpolationmode none
attr source packetDropReasonIsIncorrectlyReceived(packetDropped)
attr title "packets dropped (checksum error), count"
scalar mobilityDrones.quads[1].app[0] "packets sent" 190
scalar mobilityDrones.quads[1].app[0] "packets received" 0
scalar mobilityDrones.quads[1].app[0] packetReceived:count 59
attr interpolationmode none
attr source packetReceived
attr title "packets received, count"
scalar mobilityDrones.quads[1].app[0] packetReceived:sum(packetBytes) 826
attr interpolationmode none
attr source packetReceived
attr title "packets received, sum(packetBytes)"
statistic mobilityDrones.quads[1].app[0] rcvdPkLifetime:stats
field count 59
field mean 0.031632145836085
field stddev 0.15857407946147
field min 5.4115196e-005
field max 1.047288948795
field sum 1.866296604329
field sqrsum 1.5174878096305
attr interpolationmode none
attr source dataAge(packetReceived)
attr title "received packet lifetime, stats"
attr unit s
scalar mobilityDrones.quads[1].app[0] packetSent:count 190
attr interpolationmode none
attr source packetSent
attr title "packets sent, count"
scalar mobilityDrones.quads[1].app[0] packetSent:sum(packetBytes) 2660
attr interpolationmode none
attr source packetSent
attr title "packets sent, sum(packetBytes)"
scalar mobilityDrones.quads[2].lo[0].lo rcvdPkFromHl:count 162
attr interpolationmode none
attr source packetReceivedFromUpper
attr title "packets received from higher layer, count"
scalar mobilityDrones.quads[2].lo[0].lo rcvdPkFromHl:sum(packetBytes) 6804
attr interpolationmode none
attr source packetReceivedFromUpper
attr title "packets received from higher layer, sum(packetBytes)"
scalar mobilityDrones.quads[2].lo[0].lo passedUpPk:count 162
attr interpolationmode none
attr source packetSentToUpper
attr title "packets passed to higher layer, count"
scalar mobilityDrones.quads[2].lo[0].lo passedUpPk:sum(packetBytes) 6804
attr interpolationmode none
attr source packetSentToUpper
attr title "packets passed to higher layer, sum(packetBytes)"
scalar mobilityDrones.quads[2].wlan[0].mac.dcf.channelAccess.pendingQueue packetPopped:count 218
attr interpolationmode none
attr title "packet popped, count"
scalar mobilityDrones.quads[2].wlan[0].mac.dcf.channelAccess.pendingQueue packetPopped:sum(packetBytes) 16920
attr interpolationmode none
attr title "packet popped, sum(packetBytes)"
statistic mobilityDrones.quads[2].wlan[0].mac.dcf.channelAccess.pendingQueue queueingTime:histogram
field count 218
field mean 0.00051547068166055
field stddev 0.0025166980910922
field min 0
field max 0.018969933289
field sum 0.112372608602
field sqrsum 0.0014323527192865
attr interpolationmode none
attr source queueingTime(packetPopped)
attr title "queueing times, histogram"
attr unit s
bin	-inf	0
bin	0	204
bin	0.0004	4
bin	0.0008	0
bin	0.0012	1
bin	0.0016	0
bin	0.002	0
bin	0.0024	0
bin	0.0028	0
bin	0.0032	0
bin	0.0036	0
bin	0.004	0
bin	0.0044	0
bin	0.0048	0
bin	0.0052	0
bin	0.0056	0
bin	0.006	0
bin	0.0064	0
bin	0.0068	0
bin	0.0072	0
bin	0.0076	1
bin	0.008	0
bin	0.0084	0
bin	0.0088	0
bin	0.0092	2
bin	0.0096	0
bin	0.01	1
bin	0.0104	1
bin	0.0108	0
bin	0.0112	0
bin	0.0116	2
bin	0.012	0
bin	0.0124	0
bin	0.0128	0
bin	0.0132	0
bin	0.0136	0
bin	0.014	0
bin	0.0144	0
bin	0.0148	0
bin	0.0152	0
bin	0.0156	0
bin	0.016	0
bin	0.0164	0
bin	0.0168	0
bin	0.0172	0
bin	0.0176	0
bin	0.018	0
bin	0.0184	1
bin	0.0188	1
bin	0.0192	0
scalar mobilityDrones.quads[2].wlan[0].mac.dcf.channelAccess.pendingQueue queueLength:max 3
attr interpolationmode sample-hold
attr source "count(packetPushed) - count(packetPopped) - count(packetRemoved) - count(packetDropped)"
attr title "queue length, max"
scalar mobilityDrones.quads[2].wlan[0].mac.dcf.channelAccess.pendingQueue queueLength:timeavg 0.00043547715674374
attr interpolationmode sample-hold
attr source "count(packetPushed) - count(packetPopped) - count(packetRemoved) - count(packetDropped)"
attr title "queue length, timeavg"
scalar mobilityDrones.quads[2].wlan[0].mac.dcf.channelAccess.pendingQueue packetPushed:count 218
attr interpolationmode none
attr title "packet pushed, count"
scalar mobilityDrones.quads[2].wlan[0].mac.dcf.channelAccess.pendingQueue packetPushed:sum(packetBytes) 16920
attr interpolationmode none
attr title "packet pushed, sum(packetBytes)"
scalar mobilityDrones.quads[2].wlan[0].mac.dcf.channelAccess.pendingQueue packetDropQueueOverflow:count 0
attr interpolationmode none
attr source packetDropReasonIsQueueOverflow(packetDropped)
attr title "packet drops: queue overflow, count"
scalar mobilityDrones.quads[2].wlan[0].mac.dcf.channelAccess.pendingQueue packetDropQueueOverflow:sum(packetBytes) 0
attr interpolationmode none
attr source packetDropReasonIsQueueOverflow(packetDropped)
attr title "packet drops: queue overflow, sum(packetBytes)"
scalar mobilityDrones.quads[2].wlan[0].mac.dcf.channelAccess.pendingQueue packetRemoved:count 0
attr interpolationmode none
attr title "packets removed, count"
scalar mobilityDrones.quads[2].wlan[0].mac.dcf.channelAccess.pendingQueue packetRemoved:sum(packetBytes) 0
attr interpolationmode none
attr title "packets removed, sum(packetBytes)"
statistic mobilityDrones.quads[2].wlan[0].mac.dcf.channelAccess.inProgressFrames queueingTime:histogram
field count 217
field mean 0.0051738070930323
field stddev 0.014811934914709
field min 5e-005
field max 0.081317
field sum 1.122716139188
field sqrsum 0.053197694562592
attr interpolationmode none
attr source queueingTime(packetDequeued)
attr title "queueing times, histogram"
bin	-inf	0
bin	0	190
bin	0.001	0
bin	0.002	1
bin	0.003	0
bin	0.004	0
bin	0.005	0
bin	0.006	0
bin	0.007	0
bin	0.008	0
bin	0.009	0
bin	0.01	0
bin	0.011	0
bin	0.012	0
bin	0.013	0
bin	0.014	0
bin	0.015	0
bin	0.016	0
bin	0.017	0
bin	0.018	0
bin	0.019	0
bin	0.02	0
bin	0.021	0
bin	0.022	1
bin	0.023	1
bin	0.024	2
bin	0.025	0
bin	0.026	0
bin	0.027	0
bin	0.028	2
bin	0.029	0
bin	0.03	0
bin	0.031	1
bin	0.032	2
bin	0.033	0
bin	0.034	1
bin	0.035	2
bin	0.036	1
bin	0.037	0
bin	0.038	0
bin	0.039	0
bin	0.04	0
bin	0.041	2
bin	0.042	0
bin	0.043	1
bin	0.044	0
bin	0.045	0
bin	0.046	1
bin	0.047	1
bin	0.048	0
bin	0.049	0
bin	0.05	1
bin	0.051	1
bin	0.052	1
bin	0.053	1
bin	0.054	0
bin	0.055	0
bin	0.056	0
bin	0.057	0
bin	0.058	0
bin	0.059	0
bin	0.06	0
bin	0.061	1
bin	0.062	0
bin	0.063	0
bin	0.064	0
bin	0.065	0
bin	0.066	0
bin	0.067	1
bin	0.068	0
bin	0.069	0
bin	0.07	0
bin	0.071	0
bin	0.072	0
bin	0.073	1
bin	0.074	0
bin	0.075	0
bin	0.076	0
bin	0.077	0
bin	0.078	0
bin	0.079	0
bin	0.08	0
bin	0.081	1
bin	0.082	0
scalar mobilityDrones.quads[2].wlan[0].mac.dcf.channelAccess.inProgressFrames queueLength:max 2
attr interpolationmode sample-hold
attr source "count(packetEnqueued) - count(packetDequeued)"
attr title "queue length, max"
scalar mobilityDrones.quads[2].wlan[0].mac.dcf.channelAccess.inProgressFrames queueLength:timeavg 0.0045244067977398
attr interpolationmode sample-hold
attr source "count(packetEnqueued) - count(packetDequeued)"
attr title "queue length, timeavg"
scalar mobilityDrones.quads[2].wlan[0].mac.dcf.channelAccess.contention stateChanged:count 3668
attr interpolationmode none
attr title "contention state changed, count"
scalar mobilityDrones.quads[2].wlan[0].mac.dcf.channelAccess.contention channelAccessGranted:count 387
attr title "channel access granted, count"
scalar mobilityDrones.quads[2].wlan[0].mac.dcf.channelAccess channelOwnershipChanged:count 773
attr interpolationmode sample-hold
attr title "channel ownership, count"
scalar mobilityDrones.quads[2].wlan[0].mac.dcf.originatorMacDataService packetAggregated:count 0
attr title "packets aggregated, count"
scalar mobilityDrones.quads[2].wlan[0].mac.dcf.originatorMacDataService packetFragmented:count 0
attr title "packets fragmented, count"
scalar mobilityDrones.quads[2].wlan[0].mac.dcf.recipientMacDataService packetDropDuplicateDetected:count 0
attr interpolationmode none
attr source packetDropReasonIsDuplicateDetected(packetDropped)
attr title "packet drops: duplicate detected, count"
scalar mobilityDrones.quads[2].wlan[0].mac.dcf.recipientMacDataService packetDropDuplicateDetected:sum(packetBytes) 0
attr interpolationmode none
attr source packetDropReasonIsDuplicateDetected(packetDropped)
attr title "packet drops: duplicate detected, sum(packetBytes)"
scalar mobilityDrones.quads[2].wlan[0].mac.dcf.recipientMacDataService packetDeaggregated:count 0
attr title "packets deaggregated, count"
scalar mobilityDrones.quads[2].wlan[0].mac.dcf.recipientMacDataService packetDefragmented:count 80
attr title "packets defragmented, count"
scalar mobilityDrones.quads[2].wlan[0].mac.dcf.recoveryProcedure retryLimitReached:count 26
attr title "retry limit reached, count"
scalar mobilityDrones.quads[2].wlan[0].mac.dcf packetReceivedFromPeer:count 106
attr interpolationmode none
attr title "packets received, count"
scalar mobilityDrones.quads[2].wlan[0].mac.dcf packetReceivedFromPeer:sum(packetBytes) 6534
attr interpolationmode none
attr title "packets received, sum(packetBytes)"
scalar mobilityDrones.quads[2].wlan[0].mac.dcf packetReceivedFromPeerUnicast:count 63
attr interpolationmode none
attr source ieee80211Unicast(packetReceivedFromPeer)
attr title "packets received: unicast, count"
scalar mobilityDrones.quads[2].wlan[0].mac.dcf packetReceivedFromPeerUnicast:sum(packetBytes) 3222
attr interpolationmode none
attr source ieee80211Unicast(packetReceivedFromPeer)
attr title "packets received: unicast, sum(packetBytes)"
scalar mobilityDrones.quads[2].wlan[0].mac.dcf packetReceivedFromPeerMulticast:count 43
attr interpolationmode none
attr source ieee80211Multicast(packetReceivedFromPeer)
attr title "packets received: multicast, count"
scalar mobilityDrones.quads[2].wlan[0].mac.dcf packetReceivedFromPeerMulticast:sum(packetBytes) 3312
attr interpolationmode none
attr source ieee80211Multicast(packetReceivedFromPeer)
attr title "packets received: multicast, sum(packetBytes)"
scalar mobilityDrones.quads[2].wlan[0].mac.dcf packetReceivedFromPeerBroadcast:count 3
attr interpolationmode none
attr source ieee80211Broadcast(packetReceivedFromPeer)
attr title "packets received: broadcast, count"
scalar mobilityDrones.quads[2].wlan[0].mac.dcf packetReceivedFromPeerBroadcast:sum(packetBytes) 192
attr interpolationmode none
attr source ieee80211Broadcast(packetReceivedFromPeer)
attr title "packets received: broadcast, sum(packetBytes)"
scalar mobilityDrones.quads[2].wlan[0].mac.dcf packetReceivedFromPeerWithRetry:count 5
attr interpolationmode none
attr source ieee80211Retry(packetReceivedFromPeer)
attr title "packets received: with retry, count"
scalar mobilityDrones.quads[2].wlan[0].mac.dcf packetReceivedFromPeerWithRetry:sum(packetBytes) 390
attr interpolationmode none
attr source ieee80211Retry(packetReceivedFromPeer)
attr title "packets received: with retry, sum(packetBytes)"
scalar mobilityDrones.quads[2].wlan[0].mac.dcf packetReceivedFromPeerWithoutRetry:count 101
attr interpolationmode none
attr source ieee80211NotRetry(packetReceivedFromPeer)
attr title "packets received: without retry, count"
scalar mobilityDrones.quads[2].wlan[0].mac.dcf packetReceivedFromPeerWithoutRetry:sum(packetBytes) 6144
attr interpolationmode none
attr source ieee80211NotRetry(packetReceivedFromPeer)
attr title "packets received: without retry, sum(packetBytes)"
scalar mobilityDrones.quads[2].wlan[0].mac.dcf packetSentToPeer:count 424
attr interpolationmode none
attr title "packets sent, count"
scalar mobilityDrones.quads[2].wlan[0].mac.dcf packetSentToPeer:sum(packetBytes) 30620
attr interpolationmode none
attr title "packets sent, sum(packetBytes)"
scalar mobilityDrones.quads[2].wlan[0].mac.dcf packetSentToPeerUnicast:count 259
attr interpolationmode none
attr source ieee80211Unicast(packetSentToPeer)
attr title "packets sent: unicast, count"
scalar mobilityDrones.quads[2].wlan[0].mac.dcf packetSentToPeerUnicast:sum(packetBytes) 17792
attr interpolationmode none
attr source ieee80211Unicast(packetSentToPeer)
attr title "packets sent: unicast, sum(packetBytes)"
scalar mobilityDrones.quads[2].wlan[0].mac.dcf packetSentToPeerMulticast:count 165
attr interpolationmode none
attr source ieee80211Multicast(packetSentToPeer)
attr title "packets sent: multicast, count"
scalar mobilityDrones.quads[2].wlan[0].mac.dcf packetSentToPeerMulticast:sum(packetBytes) 12828
attr interpolationmode none
attr source ieee80211Multicast(packetSentToPeer)
attr title "packets sent: multicast, sum(packetBytes)"
scalar mobilityDrones.quads[2].wlan[0].mac.dcf packetSentToPeerBroadcast:count 3
attr interpolationmode none
attr source ieee80211Broadcast(packetSentToPeer)
attr title "packets sent: broadcast , count"
scalar mobilityDrones.quads[2].wlan[0].mac.dcf packetSentToPeerBroadcast:sum(packetBytes) 192
attr interpolationmode none
attr source ieee80211Broadcast(packetSentToPeer)
attr title "packets sent: broadcast , sum(packetBytes)"
scalar mobilityDrones.quads[2].wlan[0].mac.dcf packetSentToPeerWithRetry:count 169
attr interpolationmode none
attr source ieee80211Retry(packetSentToPeer)
attr title "packets sent: with retry, count"
scalar mobilityDrones.quads[2].wlan[0].mac.dcf packetSentToPeerWithRetry:sum(packetBytes) 13182
attr interpolationmode none
attr source ieee80211Retry(packetSentToPeer)
attr title "packets sent: with retry, sum(packetBytes)"
scalar mobilityDrones.quads[2].wlan[0].mac.dcf packetSentToPeerWithoutRetry:count 255
attr interpolationmode none
attr source ieee80211NotRetry(packetSentToPeer)
attr title "packets sent: without retry, count"
[...]
scalar mobilityDrones.groundStation.wlan[0].mac.dcf packetSentToPeerWithRetry:count 77
attr interpolationmode none
attr source ieee80211Retry(packetSentToPeer)
attr title "packets sent: with retry, count"
scalar mobilityDrones.groundStation.wlan[0].mac.dcf packetSentToPeerWithRetry:sum(packetBytes) 6006
attr interpolationmode none
attr source ieee80211Retry(packetSentToPeer)
attr title "packets sent: with retry, sum(packetBytes)"
scalar mobilityDrones.groundStation.wlan[0].mac.dcf packetSentToPeerWithoutRetry:count 246
attr interpolationmode none
attr source ieee80211NotRetry(packetSentToPeer)
attr title "packets sent: without retry, count"
scalar mobilityDrones.groundStation.wlan[0].mac.dcf packetSentToPeerWithoutRetry:sum(packetBytes) 17432
attr interpolationmode none
attr source ieee80211NotRetry(packetSentToPeer)
attr title "packets sent: without retry, sum(packetBytes)"
scalar mobilityDrones.groundStation.wlan[0].mac.dcf packetDrop:count 45
attr interpolationmode none
attr source packetDropped
attr title "packet drops, count"
scalar mobilityDrones.groundStation.wlan[0].mac.dcf packetDrop:sum(packetBytes) 3382
attr interpolationmode none
attr source packetDropped
attr title "packet drops, sum(packetBytes)"
scalar mobilityDrones.groundStation.wlan[0].mac.dcf packetDropNotAddressedToUs:count 33
attr interpolationmode none
attr source packetDropReasonIsNotAddressedToUs(packetDropped)
attr title "packet drops: not addressed to us, count"
scalar mobilityDrones.groundStation.wlan[0].mac.dcf packetDropNotAddressedToUs:sum(packetBytes) 2446
attr interpolationmode none
attr source packetDropReasonIsNotAddressedToUs(packetDropped)
attr title "packet drops: not addressed to us, sum(packetBytes)"
scalar mobilityDrones.groundStation.wlan[0].mac.dcf packetDropQueueOverflow:count 0
attr interpolationmode none
attr source packetDropReasonIsQueueOverflow(packetDropped)
attr title "packet drops: queue overflow, count"
scalar mobilityDrones.groundStation.wlan[0].mac.dcf packetDropQueueOverflow:sum(packetBytes) 0
attr interpolationmode none
attr source packetDropReasonIsQueueOverflow(packetDropped)
attr title "packet drops: queue overflow, sum(packetBytes)"
scalar mobilityDrones.groundStation.wlan[0].mac.dcf packetDropRetryLimitReached:count 11
attr interpolationmode none
attr source packetDropReasonIsRetryLimitReached(packetDropped)
attr title "packet drops: retry limit reached, count"
scalar mobilityDrones.groundStation.wlan[0].mac.dcf packetDropRetryLimitReached:sum(packetBytes) 858
attr interpolationmode none
attr source packetDropReasonIsRetryLimitReached(packetDropped)
attr title "packet drops: retry limit reached, sum(packetBytes)"
scalar mobilityDrones.groundStation.wlan[0].mac.dcf linkBroken:count 11
attr interpolationmode none
attr title "link breaks, count"
scalar mobilityDrones.groundStation.wlan[0].mac.dcf frameSequenceFinished:count 296
attr title "finished frame sequences, count"
statistic mobilityDrones.groundStation.wlan[0].mac.dcf frameSequenceDuration:histogram
field count 296
field mean 7.4231888712838e-005
field stddev 2.5787508927902e-005
field min 5e-005
field max 0.000109
field sum 0.021972639059
field sqrsum 1.8272442042835e-006
attr source frameSequenceDuration(frameSequenceFinished)
attr title "frame sequence durations, histogram"
bin	-inf	0
bin	4e-005	0
bin	4.1e-005	0
bin	4.2e-005	0
bin	4.3e-005	0
bin	4.4e-005	0
bin	4.5e-005	0
bin	4.6e-005	0
bin	4.7e-005	0
bin	4.8e-005	0
bin	4.9e-005	1
bin	5e-005	0
bin	5.1e-005	0
bin	5.2e-005	0
bin	5.3e-005	181
bin	5.4e-005	0
bin	5.5e-005	0
bin	5.6e-005	0
bin	5.7e-005	0
bin	5.8e-005	0
bin	5.9e-005	0
bin	6e-005	0
bin	6.1e-005	0
bin	6.2e-005	0
bin	6.3e-005	0
bin	6.4e-005	0
bin	6.5e-005	0
bin	6.6e-005	0
bin	6.7e-005	0
bin	6.8e-005	0
bin	6.9e-005	0
bin	7e-005	0
bin	7.1e-005	0
bin	7.2e-005	0
bin	7.3e-005	0
bin	7.4e-005	0
bin	7.5e-005	0
bin	7.6e-005	0
bin	7.7e-005	0
bin	7.8e-005	0
bin	7.9e-005	0
bin	8e-005	0
bin	8.1e-005	0
bin	8.2e-005	0
bin	8.3e-005	0
bin	8.4e-005	0
bin	8.5e-005	0
bin	8.6e-005	0
bin	8.7e-005	0
bin	8.8e-005	0
bin	8.9e-005	0
bin	9e-005	0
bin	9.1e-005	0
bin	9.2e-005	0
bin	9.3e-005	0
bin	9.4e-005	1
bin	9.5e-005	0
bin	9.6e-005	0
bin	9.7e-005	0
bin	9.8e-005	25
bin	9.9e-005	0
bin	0.0001	0
bin	0.000101	0
bin	0.000102	0
bin	0.000103	0
bin	0.000104	0
bin	0.000105	0
bin	0.000106	0
bin	0.000107	0
bin	0.000108	88
bin	0.000109	0
bin	0.00011	0
bin	0.000111	0
bin	0.000112	0
bin	0.000113	0
bin	0.000114	0
bin	0.000115	0
bin	0.000116	0
bin	0.000117	0
bin	0.000118	0
bin	0.000119	0
bin	0.00012	0
bin	0.000121	0
bin	0.000122	0
bin	0.000123	0
statistic mobilityDrones.groundStation.wlan[0].mac.dcf frameSequenceNumPackets:histogram
field count 296
field mean 1.3851351351351
field stddev 0.48745132601719
field min 1
field max 2
field sum 410
field sqrsum 638
attr source frameSequenceNumPackets(frameSequenceFinished)
attr title "frame sequences: number of packets, histogram"
bin	-inf	0
bin	0	0
bin	1	182
bin	2	114
bin	3	0
scalar mobilityDrones.groundStation.wlan[0].mac packetReceivedFromLower:count 183
attr interpolationmode none
attr title "packets received from lower layer, count"
scalar mobilityDrones.groundStation.wlan[0].mac packetReceivedFromLower:sum(packetBytes) 12298
attr interpolationmode none
attr title "packets received from lower layer, sum(packetBytes)"
scalar mobilityDrones.groundStation.wlan[0].mac packetSentToLower:count 323
attr interpolationmode none
attr title "packets sent to lower layer, count"
scalar mobilityDrones.groundStation.wlan[0].mac packetSentToLower:sum(packetBytes) 23438
attr interpolationmode none
attr title "packets sent to lower layer, sum(packetBytes)"
scalar mobilityDrones.groundStation.wlan[0].mac packetReceivedFromUpper:count 219
attr interpolationmode none
attr title "packets received from upper layer, count"
scalar mobilityDrones.groundStation.wlan[0].mac packetReceivedFromUpper:sum(packetBytes) 10922
attr interpolationmode none
attr title "packets received from upper layer, sum(packetBytes)"
scalar mobilityDrones.groundStation.wlan[0].mac packetSentToUpper:count 108
attr interpolationmode none
attr title "packets sent to upper layer, count"
scalar mobilityDrones.groundStation.wlan[0].mac packetSentToUpper:sum(packetBytes) 5358
attr interpolationmode none
attr title "packets sent to upper layer, sum(packetBytes)"
scalar mobilityDrones.groundStation.wlan[0].mac packetDrop:count 60
attr interpolationmode none
attr source packetDropped
attr title "packet drops, count"
scalar mobilityDrones.groundStation.wlan[0].mac packetDrop:sum(packetBytes) 4410
attr interpolationmode none
attr source packetDropped
attr title "packet drops, sum(packetBytes)"
scalar mobilityDrones.groundStation.wlan[0].mac packetDropIncorrectlyReceived:count 15
attr interpolationmode none
attr source packetDropReasonIsIncorrectlyReceived(packetDropped)
attr title "packet drops: incorrectly received, count"
scalar mobilityDrones.groundStation.wlan[0].mac packetDropIncorrectlyReceived:sum(packetBytes) 1028
attr interpolationmode none
attr source packetDropReasonIsIncorrectlyReceived(packetDropped)
attr title "packet drops: incorrectly received, sum(packetBytes)"
scalar mobilityDrones.groundStation.wlan[0].mac packetDropNotAddressedToUs:count 33
attr interpolationmode none
attr source packetDropReasonIsNotAddressedToUs(packetDropped)
attr title "packet drops: not addressed to us, count"
scalar mobilityDrones.groundStation.wlan[0].mac packetDropNotAddressedToUs:sum(packetBytes) 2446
attr interpolationmode none
attr source packetDropReasonIsNotAddressedToUs(packetDropped)
attr title "packet drops: not addressed to us, sum(packetBytes)"
scalar mobilityDrones.groundStation.wlan[0].mac packetDropQueueOverflow:count 0
attr interpolationmode none
attr source packetDropReasonIsQueueOverflow(packetDropped)
attr title "packet drops: queue overflow, count"
scalar mobilityDrones.groundStation.wlan[0].mac packetDropQueueOverflow:sum(packetBytes) 0
attr interpolationmode none
attr source packetDropReasonIsQueueOverflow(packetDropped)
attr title "packet drops: queue overflow, sum(packetBytes)"
scalar mobilityDrones.groundStation.wlan[0].mac packetDropRetryLimitReached:count 11
attr interpolationmode none
attr source packetDropReasonIsRetryLimitReached(packetDropped)
attr title "packet drops: retry limit reached, count"
scalar mobilityDrones.groundStation.wlan[0].mac packetDropRetryLimitReached:sum(packetBytes) 858
attr interpolationmode none
attr source packetDropReasonIsRetryLimitReached(packetDropped)
attr title "packet drops: retry limit reached, sum(packetBytes)"
scalar mobilityDrones.groundStation.wlan[0].mac packetDropDuplicateDetected:count 1
attr interpolationmode none
attr source packetDropReasonIsDuplicateDetected(packetDropped)
attr title "packet drops: duplicate detected, count"
scalar mobilityDrones.groundStation.wlan[0].mac packetDropDuplicateDetected:sum(packetBytes) 78
attr interpolationmode none
attr source packetDropReasonIsDuplicateDetected(packetDropped)
attr title "packet drops: duplicate detected, sum(packetBytes)"
scalar mobilityDrones.groundStation.wlan[0].mac packetDropOther:count 0
attr interpolationmode none
attr source packetDropReasonIsOther(packetDropped)
attr title "packet drops: other, count"
scalar mobilityDrones.groundStation.wlan[0].mac packetDropOther:sum(packetBytes) 0
attr interpolationmode none
attr source packetDropReasonIsOther(packetDropped)
attr title "packet drops: other, sum(packetBytes)"
scalar mobilityDrones.groundStation.wlan[0].mac linkBroken:count 11
attr interpolationmode none
attr title "link breaks, count"
statistic mobilityDrones.groundStation.wlan[0].radio minSnir:histogram
field count 183
field mean 1505039933.6547
field stddev 11683195746.905
field min 14.549926451736
field max 91755054109.427
field sum 275422307858.82
field sqrsum 2.5256987012556e+022
attr source minimumSnir(packetSentToUpper)
attr title "Min SNIR, histogram"
bin	-inf	0
bin	0	180
bin	2000000000	0
bin	4000000000	0
bin	6000000000	0
bin	8000000000	0
bin	10000000000	0
bin	12000000000	0
bin	14000000000	0
bin	16000000000	0
bin	18000000000	0
bin	20000000000	0
bin	22000000000	0
bin	24000000000	0
bin	26000000000	0
bin	28000000000	0
bin	30000000000	0
bin	32000000000	0
bin	34000000000	0
bin	36000000000	0
bin	38000000000	0
bin	40000000000	0
bin	42000000000	0
bin	44000000000	0
bin	46000000000	0
bin	48000000000	0
bin	50000000000	0
bin	52000000000	0
bin	54000000000	0
bin	56000000000	0
bin	58000000000	0
bin	60000000000	0
bin	62000000000	0
bin	64000000000	0
bin	66000000000	0
bin	68000000000	0
bin	70000000000	0
bin	72000000000	0
bin	74000000000	0
bin	76000000000	0
bin	78000000000	0
bin	80000000000	0
bin	82000000000	0
bin	84000000000	0
bin	86000000000	0
bin	88000000000	0
bin	90000000000	3
bin	92000000000	0
bin	94000000000	0
bin	96000000000	0
bin	98000000000	0
bin	100000000000	0
bin	102000000000	0
bin	104000000000	0
bin	106000000000	0
bin	108000000000	0
bin	110000000000	0
bin	112000000000	0
bin	114000000000	0
bin	116000000000	0
statistic mobilityDrones.groundStation.wlan[0].radio packetErrorRate:histogram
field count 183
field mean 0.063981022044667
field stddev 0.19072947201424
field min 0
field max 0.87691705199256
field sum 11.708527034174
field sqrsum 7.3698706583432
attr source packetErrorRate(packetSentToUpper)
attr title "Packet error rate, histogram"
bin	-inf	0
bin	0	149
bin	0.02	0
bin	0.04	10
bin	0.06	0
bin	0.08	0
bin	0.1	1
bin	0.12	3
bin	0.14	4
bin	0.16	0
bin	0.18	1
bin	0.2	0
bin	0.22	0
bin	0.24	0
bin	0.26	0
bin	0.28	0
bin	0.3	0
bin	0.32	1
bin	0.34	1
bin	0.36	0
bin	0.38	0
bin	0.4	0
bin	0.42	0
bin	0.44	0
bin	0.46	2
bin	0.48	3
bin	0.5	0
bin	0.52	0
bin	0.54	0
bin	0.56	0
bin	0.58	0
bin	0.6	0
bin	0.62	0
bin	0.64	0
bin	0.66	0
bin	0.68	0
bin	0.7	0
bin	0.72	0
bin	0.74	0
bin	0.76	0
bin	0.78	0
bin	0.8	0
bin	0.82	4
bin	0.84	2
bin	0.86	2
bin	0.88	0
bin	0.9	0
bin	0.92	0
bin	0.94	0
bin	0.96	0
bin	0.98	0
bin	1	0
bin	1.02	0
bin	1.04	0
bin	1.06	0
statistic mobilityDrones.groundStation.wlan[0].radio bitErrorRate:histogram
field count 0
field mean nan
field stddev nan
field min nan
field max nan
field sum 0
field sqrsum 0
attr source bitErrorRate(packetSentToUpper)
attr title "Bit error rate, histogram"
bin	-inf	0
bin	0	0
bin	1	0
statistic mobilityDrones.groundStation.wlan[0].radio symbolErrorRate:histogram
field count 0
field mean nan
field stddev nan
field min nan
field max nan
field sum 0
field sqrsum 0
attr source symbolErrorRate(packetSentToUpper)
attr title "Symbol error rate, histogram"
bin	-inf	0
bin	0	0
bin	1	0
scalar mobilityDrones.groundStation.wlan[0].radio transmissionState:count 1292
attr interpolationmode sample-hold
attr source transmissionStateChanged
attr title "Radio transmission state, count"
scalar mobilityDrones.groundStation.wlan[0].radio receptionState:count 1023
attr interpolationmode sample-hold
attr source receptionStateChanged
attr title "Radio reception state, count"
scalar mobilityDrones.groundStation.wlan[0].radio radioMode:count 649
attr interpolationmode sample-hold
attr source radioModeChanged
attr title "Radio mode, count"
statistic mobilityDrones.groundStation.wlan[0].radio radioChannel:histogram
field count 1
field mean 0
field stddev nan
field min 0
field max 0
field sum 0
field sqrsum 0
attr interpolationmode sample-hold
attr source radioChannelChanged
attr title "Radio channel, histogram"
bin	-inf	0
bin	-0.5	0
bin	-0.48	0
bin	-0.46	0
bin	-0.44	0
bin	-0.42	0
bin	-0.4	0
bin	-0.38	0
bin	-0.36	0
bin	-0.34	0
bin	-0.32	0
bin	-0.3	0
bin	-0.28	0
bin	-0.26	0
bin	-0.24	0
bin	-0.22	0
bin	-0.2	0
bin	-0.18	0
bin	-0.16	0
bin	-0.14	0
bin	-0.12	0
bin	-0.1	0
bin	-0.08	0
bin	-0.06	0
bin	-0.04	0
bin	-0.02	0
bin	0	1
bin	0.02	0
bin	0.04	0
bin	0.06	0
bin	0.08	0
bin	0.1	0
bin	0.12	0
bin	0.14	0
bin	0.16	0
bin	0.18	0
bin	0.2	0
bin	0.22	0
bin	0.24	0
bin	0.26	0
bin	0.28	0
bin	0.3	0
bin	0.32	0
bin	0.34	0
bin	0.36	0
bin	0.38	0
bin	0.4	0
bin	0.42	0
bin	0.44	0
bin	0.46	0
bin	0.48	0
bin	0.5	0
scalar mobilityDrones.groundStation.ipv4.ip packetDropAddressResolutionFailed:count 0
attr interpolationmode none
attr source packetDropReasonIsAddressResolutionFailed(packetDropped)
attr title "packet drop: address resolution failed, count"
scalar mobilityDrones.groundStation.ipv4.ip packetDropAddressResolutionFailed:sum(packetBytes) 0
attr interpolationmode none
attr source packetDropReasonIsAddressResolutionFailed(packetDropped)
attr title "packet drop: address resolution failed, sum(packetBytes)"
scalar mobilityDrones.groundStation.ipv4.ip packetDropHopLimitReached:count 0
attr interpolationmode none
attr source packetDropReasonIsHopLimitReached(packetDropped)
attr title "packet drop: hop limit reached, count"
scalar mobilityDrones.groundStation.ipv4.ip packetDropHopLimitReached:sum(packetBytes) 0
attr interpolationmode none
attr source packetDropReasonIsHopLimitReached(packetDropped)
attr title "packet drop: hop limit reached, sum(packetBytes)"
scalar mobilityDrones.groundStation.ipv4.ip packetDropForwardingDisabled:count 0
attr interpolationmode none
attr source packetDropReasonIsForwardingDisabled(packetDropped)
attr title "packet drop: forwarding disabled, count"
scalar mobilityDrones.groundStation.ipv4.ip packetDropForwardingDisabled:sum(packetBytes) 0
attr interpolationmode none
attr source packetDropReasonIsForwardingDisabled(packetDropped)
attr title "packet drop: forwarding disabled, sum(packetBytes)"
scalar mobilityDrones.groundStation.ipv4.ip packetDropNoInterfaceFound:count 0
attr interpolationmode none
attr source packetDropReasonIsNoInterfaceFound(packetDropped)
attr title "packet drop: no interface found, count"
scalar mobilityDrones.groundStation.ipv4.ip packetDropNoInterfaceFound:sum(packetBytes) 0
attr interpolationmode none
attr source packetDropReasonIsNoInterfaceFound(packetDropped)
attr title "packet drop: no interface found, sum(packetBytes)"
scalar mobilityDrones.groundStation.ipv4.ip packetDropNoRouteFound:count 0
attr interpolationmode none
attr source packetDropReasonIsNoRouteFound(packetDropped)
attr title "packet drop: no route found, count"
scalar mobilityDrones.groundStation.ipv4.ip packetDropNoRouteFound:sum(packetBytes) 0
attr interpolationmode none
attr source packetDropReasonIsNoRouteFound(packetDropped)
attr title "packet drop: no route found, sum(packetBytes)"
scalar mobilityDrones.groundStation.ipv4.ip packetDropUndefined:count 0
attr interpolationmode none
attr source packetDropReasonIsUndefined(packetDropped)
attr title "packet drop: undefined, count"
scalar mobilityDrones.groundStation.ipv4.ip packetDropUndefined:sum(packetBytes) 0
attr interpolationmode none
attr source packetDropReasonIsUndefined(packetDropped)
attr title "packet drop: undefined, sum(packetBytes)"
scalar mobilityDrones.groundStation.ipv4.arp arpReplySent:count 1
attr source arpReplySent
attr title "ARP replies sent, count"
scalar mobilityDrones.groundStation.ipv4.arp arpReplySent:sum(packetBytes) 28
attr source arpReplySent
attr title "ARP replies sent, sum(packetBytes)"
scalar mobilityDrones.groundStation.ipv4.arp arpRequestSent:count 1
attr source arpRequestSent
attr title "ARP request sent, count"
scalar mobilityDrones.groundStation.ipv4.arp arpRequestSent:sum(packetBytes) 28
attr source arpRequestSent
attr title "ARP request sent, sum(packetBytes)"
scalar mobilityDrones.groundStation.ipv4.arp arpResolutionFailed:count 0
attr title "ARP failed resolutions, count"
scalar mobilityDrones.groundStation.ipv4.arp arpResolutionCompleted:count 2
attr title "ARP completed resolutions, count"
scalar mobilityDrones.groundStation.ipv4.arp arpResolutionInitiated:count 1
attr title "ARP initiated resolutions, count"
scalar mobilityDrones.groundStation.udp packetReceived:count 209
attr interpolationmode none
attr source packetReceived
attr title "packets received, count"
scalar mobilityDrones.groundStation.udp packetReceived:sum(packetBytes) 4598
attr interpolationmode none
attr source packetReceived
attr title "packets received, sum(packetBytes)"
scalar mobilityDrones.groundStation.udp packetSent:count 217
attr interpolationmode none
attr source packetSent
attr title "packets sent, count"
scalar mobilityDrones.groundStation.udp packetSent:sum(packetBytes) 4774
attr interpolationmode none
attr source packetSent
attr title "packets sent, sum(packetBytes)"
scalar mobilityDrones.groundStation.udp passedUpPk:count 209
attr interpolationmode none
attr source packetSentToUpper
attr title "packets passed up, count"
scalar mobilityDrones.groundStation.udp droppedPkWrongPort:count 0
attr interpolationmode none
attr source packetDropReasonIsNoPortFound(packetDropped)
attr title "packets dropped (wrong port), count"
scalar mobilityDrones.groundStation.udp droppedPkBadChecksum:count 0
attr interpolationmode none
attr source packetDropReasonIsIncorrectlyReceived(packetDropped)
attr title "packets dropped (checksum error), count"
scalar mobilityDrones.groundStation.app[0] "packets sent" 217
scalar mobilityDrones.groundStation.app[0] "packets received" 0
scalar mobilityDrones.groundStation.app[0] packetReceived:count 28
attr interpolationmode none
attr source packetReceived
attr title "packets received, count"
scalar mobilityDrones.groundStation.app[0] packetReceived:sum(packetBytes) 392
attr interpolationmode none
attr source packetReceived
attr title "packets received, sum(packetBytes)"
statistic mobilityDrones.groundStation.app[0] rcvdPkLifetime:stats
field count 28
field mean 0.0026028419112857
field stddev 0.007552112147994
field min 5.4066867e-005
field max 0.031028204749
field sum 0.072879573516
field sqrsum 0.0017296227516128
attr interpolationmode none
attr source dataAge(packetReceived)
attr title "received packet lifetime, stats"
attr unit s
scalar mobilityDrones.groundStation.app[0] packetSent:count 217
attr interpolationmode none
attr source packetSent
attr title "packets sent, count"
scalar mobilityDrones.groundStation.app[0] packetSent:sum(packetBytes) 3038
attr interpolationmode none
attr source packetSent
attr title "packets sent, sum(packetBytes)"

